
.include /home/ahmedreda/PDK/sky130A/libs.ref/sky130_fd_sc_hvl/spice/sky130_fd_sc_hvl.spice
.include /home/ahmedreda/PDK/sky130A/libs.ref/sky130_fd_sc_hvl/spice/sky130_fd_sc_hvl__lsbuflv2hv_1.spice
.include /home/ahmedreda/PDK/sky130A/libs.ref/sky130_fd_sc_hd/spice/sky130_fd_sc_hd.spice
.include /home/ahmedreda/Project/mpw7-main/xschem/testbuffer/decoder3to8.spice


** sch_path: /home/ahmedreda/Project/AR_SAR_ADC/ADC/xschem/adc_8ch_v1/EF_ADCS0808NSCX.sch
.subckt EF_ADCS0808NSCX dvdd hold vdd vss dvss ena cmp vhigh vlow dac_out b0 b1 b2 b3 b4 b5 b6 b7
+ inp[7] inp[6] inp[5] inp[4] inp[3] inp[2] inp[1] inp[0] in[2] in[1] in[0]
*.PININFO dvdd:B hold:I vdd:B vss:B dvss:B ena:I cmp:O vhigh:I vlow:I dac_out:O b0:I b1:I b2:I b3:I
*+ b4:I b5:I b6:I b7:I inp[7:0]:B in[2:0]:B
x1 dvdd dvss hold vdd net1 net2 ena vss sample_and_hold
x2 cmp dvdd dvss vdd vss net1 dac_out comparator_top
x3 dvdd vss dvss vdd b0 vhigh b1 b2 b3 dac_out b4 b5 ena b6 b7 vlow dac_3v_8bit
x4 dvdd dvss net2 inp[7] inp[6] inp[5] inp[4] inp[3] inp[2] inp[1] inp[0] in[2] in[1] in[0] sbamux4
.ends

* expanding   symbol:  Project/AR_SAR_ADC/ADC/xschem/sample_and_hold.sym # of pins=8
** sym_path: /home/ahmedreda/Project/AR_SAR_ADC/ADC/xschem/sample_and_hold.sym
** sch_path: /home/ahmedreda/Project/AR_SAR_ADC/ADC/xschem/sample_and_hold.sch
.subckt sample_and_hold dvdd dvss hold vdd out in ena vss
*.PININFO vdd:I hold:I in:I vss:I out:O dvdd:I dvss:I ena:I
XC1 holdval vss sky130_fd_pr__cap_mim_m3_1 W=5 L=5 MF=80 m=80
XC2 vss holdval sky130_fd_pr__cap_mim_m3_2 W=5 L=5 MF=80 m=80
x2 vdd out ena vss holdval follower_amp
x3 vdd net1 ena vss in follower_amp
x4 hold dvdd dvss dvss vdd vdd hold3v sky130_fd_sc_hvl__lsbuflv2hv_1
D1 dvss hold sky130_fd_pr__diode_pw2nd_05v5
x1 hold3v vss holdval net1 vdd balanced_switch
.ends


* expanding   symbol:  Project/AR_SAR_ADC/ADC/xschem/comparator_top.sym # of pins=7
** sym_path: /home/ahmedreda/Project/AR_SAR_ADC/ADC/xschem/comparator_top.sym
** sch_path: /home/ahmedreda/Project/AR_SAR_ADC/ADC/xschem/comparator_top.sch
.subckt comparator_top VOUT DVDD DVSS VDD VSS VINP VINM
*.PININFO VDD:I VOUT:O VSS:I VINP:I VINM:I DVDD:I DVSS:I
x1 VDD net1 net2 VSS VINP net3 VINM comparator
x2 VDD VSS net1 net2 comparator_bias
x3 net3 DVDD DVSS DVSS VDD VDD VOUT sky130_fd_sc_hvl__lsbufhv2lv_1
.ends


* expanding   symbol:  Project/AR_SAR_ADC/ADC/xschem/dac_3v_8bit/xschem/dac_3v_8bit.sym # of pins=16
** sym_path: /home/ahmedreda/Project/AR_SAR_ADC/ADC/xschem/dac_3v_8bit/xschem/dac_3v_8bit.sym
** sch_path: /home/ahmedreda/Project/AR_SAR_ADC/ADC/xschem/dac_3v_8bit/xschem/dac_3v_8bit.sch
.subckt dac_3v_8bit dvdd vss dvss vdd b0 Vhigh b1 b2 b3 out b4 b5 ena b6 b7 Vlow
*.PININFO out:O vss:I vdd:I Vhigh:I Vlow:O ena:I b0:I b1:I b2:I b3:I b4:I b5:I b6:I b7:I dvdd:I
*+ dvss:I
x1 vdd vss b3a b4a b3b b4b b5a Vhigh b6a b0a net3 b6b b5b b0b b1a b1b b2a b2b net1 net6 net5
+ dac_half
x2 vdd vss b3a b4a b3b b4b b5a net6 b6a b0a net5 b6b b5b b0b b1a b1b b2a b2b net2 Vlow net4 dac_half
x3 vdd b7b out_unbuf net1 b7a vss passtrans
x7 vdd dvdd b7a b7b b7 dvss level_shifter
x8 vdd dvdd b6a b6b b6 dvss level_shifter
x9 vdd dvdd b5a b5b b5 dvss level_shifter
x10 vdd dvdd b4a b4b b4 dvss level_shifter
x11 vdd dvdd b3a b3b b3 dvss level_shifter
x12 vdd dvdd b2a b2b b2 dvss level_shifter
x13 vdd dvdd b1a b1b b1 dvss level_shifter
x14 vdd dvdd b0a b0b b0 dvss level_shifter
x15 vdd b7a out_unbuf net2 b7b vss passtrans
x18 vdd net4 Vlow net7 vss net8 dac_column_dummy
x5 vdd net8 net7 net9 vss net9 dac_column_dummy
x4 vdd net10 net11 Vhigh vss net3 dac_column_dummy
x16 vdd net12 net12 net11 vss net10 dac_column_dummy
x17 vdd out ena vss out_unbuf follower_amp
.ends


* expanding   symbol:  Project/mpw7-main/xschem/testbuffer/sbamux4.sym # of pins=5
** sym_path: /home/ahmedreda/Project/mpw7-main/xschem/testbuffer/sbamux4.sym
** sch_path: /home/ahmedreda/Project/mpw7-main/xschem/testbuffer/sbamux4.sch
.subckt sbamux4 vdd1p8 vss muxout inp[7] inp[6] inp[5] inp[4] inp[3] inp[2] inp[1] inp[0] in[2]
+ in[1] in[0]
*.PININFO vdd1p8:B vss:B in[2:0]:I muxout:B inp[7:0]:I
x4 vdd1p8 vbg vss ibnbas vss vss vss vss vss vss vss vdd1p8 vss vss vss vss vss vss vss vss bandgap
x2 ibpbas vbg ibp[3] ibp[2] ibp[1] ibp[0] ibn[1] ibn[0] vdd1p8 vss vb[6] vb[5] vb[4] vb[3] vb[2]
+ vb[1] vb[0] bias
x3 vdd1p8 vss ibpbas ibnbas bias_basis_current
x1 ibp[0] muxout vdd1p8 vss inp[7] inp[6] inp[5] inp[4] inp[3] inp[2] inp[1] inp[0] in[2] in[1]
+ in[0] mux8by1mpw7x
.ends


* expanding   symbol:  follower_amp.sym # of pins=5
** sym_path: /home/ahmedreda/Project/mpw7-main/xschem/testbuffer/follower_amp.sym
** sch_path: /home/ahmedreda/Project/mpw7-main/xschem/testbuffer/follower_amp.sch
.subckt follower_amp vdd out ena vss in
*.PININFO in:I vdd:I vss:I out:O ena:I
XM4 pdrv1 net1 vdd vdd sky130_fd_pr__pfet_g5v0d10v5 L=0.5 W=2 nf=2 m=1
XM5 vdd net1 net1 vdd sky130_fd_pr__pfet_g5v0d10v5 L=0.5 W=2 nf=2 m=1
XM9 vcomn1 nbias vss vss sky130_fd_pr__nfet_g5v0d10v5 L=0.5 W=1 nf=1 m=1
XM10 vss nbias nbias vss sky130_fd_pr__nfet_g5v0d10v5 L=0.5 W=4 nf=4 m=1
XR1 net4 vdd vss sky130_fd_pr__res_xhigh_po W=0.35 W=1 L=100 mult=1 m=1
XM20 out pdrv1 vdd vdd sky130_fd_pr__pfet_g5v0d10v5 L=0.5 W=200 nf=200 m=1
XM22 out ndrv vss vss sky130_fd_pr__nfet_g5v0d10v5 L=0.5 W=120 nf=120 m=1
XM24 pbias nbias vss vss sky130_fd_pr__nfet_g5v0d10v5 L=0.5 W=1 nf=1 m=1
XM25 vdd pbias pbias vdd sky130_fd_pr__pfet_g5v0d10v5 L=0.5 W=1 nf=1 m=1
XM26 vcomp pbias vdd vdd sky130_fd_pr__pfet_g5v0d10v5 L=0.5 W=2 nf=2 m=1
XM27 net2 out vcomp vdd sky130_fd_pr__pfet_g5v0d10v5 L=0.5 W=2 nf=2 m=1
XM28 vcomp in ndrv vdd sky130_fd_pr__pfet_g5v0d10v5 L=0.5 W=2 nf=2 m=1
XM29 ndrv net2 vss vss sky130_fd_pr__nfet_g5v0d10v5 L=0.5 W=1 nf=1 m=1
XM30 vss net2 net2 vss sky130_fd_pr__nfet_g5v0d10v5 L=0.5 W=1 nf=1 m=1
XM1 net1 out vcomn1 vss sky130_fd_pr__nfet_g5v0d10v5 L=0.5 W=1 nf=1 m=1
XM2 vcomn1 in pdrv1 vss sky130_fd_pr__nfet_g5v0d10v5 L=0.5 W=1 nf=1 m=1
XM3 pdrv2 net3 vdd vdd sky130_fd_pr__pfet_g5v0d10v5 L=0.5 W=2 nf=2 m=1
XM6 vdd net3 net3 vdd sky130_fd_pr__pfet_g5v0d10v5 L=0.5 W=2 nf=2 m=1
XM7 vcomn2 nbias vss vss sky130_fd_pr__nfet_g5v0d10v5 L=0.5 W=1 nf=1 m=1
XM8 net3 out vcomn2 vss sky130_fd_pr__nfet_03v3_nvt L=0.5 W=1 nf=1 m=1
XM11 vcomn2 in pdrv2 vss sky130_fd_pr__nfet_03v3_nvt L=0.5 W=1 nf=1 m=1
XM12 vdd pdrv2 out vdd sky130_fd_pr__pfet_g5v0d10v5 L=0.5 W=200 nf=200 m=1
D1 vss in sky130_fd_pr__diode_pw2nd_05v5
XM13 net4 ena nbias vss sky130_fd_pr__nfet_g5v0d10v5 L=0.5 W=1 nf=1 m=1
D2 vss ena sky130_fd_pr__diode_pw2nd_05v5
.ends


* expanding   symbol:  Project/AR_SAR_ADC/sample_and_hold/xschem/balanced_switch.sym # of pins=5
** sym_path: /home/ahmedreda/Project/AR_SAR_ADC/sample_and_hold/xschem/balanced_switch.sym
** sch_path: /home/ahmedreda/Project/AR_SAR_ADC/sample_and_hold/xschem/balanced_switch.sch
.subckt balanced_switch hold vss out in vdd
*.PININFO in:I out:O vss:I vdd:I hold:I
XM1 in holdb out vss sky130_fd_pr__nfet_g5v0d10v5 L=0.5 W=4 nf=2 m=1
XM2 in holdp out vdd sky130_fd_pr__pfet_g5v0d10v5 L=0.5 W=10 nf=2 m=1
XM3 out holdp out vss sky130_fd_pr__nfet_g5v0d10v5 L=0.5 W=2 nf=1 m=1
XM4 out holdb out vdd sky130_fd_pr__pfet_g5v0d10v5 L=0.5 W=5 nf=1 m=1
XM5 in holdp in vss sky130_fd_pr__nfet_g5v0d10v5 L=0.5 W=2 nf=1 m=1
XM6 in holdb in vdd sky130_fd_pr__pfet_g5v0d10v5 L=0.5 W=5 nf=1 m=1
XM7 holdb hold vdd vdd sky130_fd_pr__pfet_g5v0d10v5 L=0.5 W=5 nf=1 m=1
XM8 holdb hold vss vss sky130_fd_pr__nfet_g5v0d10v5 L=0.5 W=2 nf=1 m=1
XM9 holdp holdb vdd vdd sky130_fd_pr__pfet_g5v0d10v5 L=0.5 W=5 nf=1 m=1
XM10 holdp holdb vss vss sky130_fd_pr__nfet_g5v0d10v5 L=0.5 W=2 nf=1 m=1
D1 vss hold sky130_fd_pr__diode_pw2nd_05v5
.ends


* expanding   symbol:  comparator.sym # of pins=7
** sym_path: /home/ahmedreda/Project/AR_SAR_ADC/sample_and_hold/xschem/comparator.sym
** sch_path: /home/ahmedreda/Project/AR_SAR_ADC/sample_and_hold/xschem/comparator.sch
.subckt comparator VDD VBP VBN VSS VINP VOUT VINM
*.PININFO VINP:I VINM:I VBN:I VBP:I VDD:B VSS:B VOUT:O
XM1 net3 VINM net1 VSS sky130_fd_pr__nfet_g5v0d10v5 L=2 W=5 nf=1 m=4
XM2 net2 VINP net1 VSS sky130_fd_pr__nfet_g5v0d10v5 L=2 W=5 nf=1 m=4
XM3 net1 VBN VSS VSS sky130_fd_pr__nfet_g5v0d10v5 L=2 W=5 nf=1 m=2
XM4 net4 net4 VSS VSS sky130_fd_pr__nfet_g5v0d10v5 L=2 W=5 nf=1 m=2
XM5 VOUTANALOG net4 VSS VSS sky130_fd_pr__nfet_g5v0d10v5 L=2 W=5 nf=1 m=2
XM6 net3 net3 VDD VDD sky130_fd_pr__pfet_g5v0d10v5 L=2 W=5 nf=1 m=2
XM7 net2 net2 VDD VDD sky130_fd_pr__pfet_g5v0d10v5 L=2 W=5 nf=1 m=2
XM8 net4 net3 VDD VDD sky130_fd_pr__pfet_g5v0d10v5 L=2 W=5 nf=1 m=2
XM9 VOUTANALOG net2 VDD VDD sky130_fd_pr__pfet_g5v0d10v5 L=2 W=5 nf=1 m=2
XM10 net6 VINM net5 VDD sky130_fd_pr__pfet_g5v0d10v5 L=2 W=5 nf=1 m=4
XM11 net7 VINP net5 VDD sky130_fd_pr__pfet_g5v0d10v5 L=2 W=5 nf=1 m=4
XM12 net5 VBP VDD VDD sky130_fd_pr__pfet_g5v0d10v5 L=2 W=5 nf=1 m=2
XM13 net8 net8 VDD VDD sky130_fd_pr__pfet_g5v0d10v5 L=2 W=5 nf=1 m=2
XM14 VOUTANALOG net8 VDD VDD sky130_fd_pr__pfet_g5v0d10v5 L=2 W=5 nf=1 m=2
XM15 net6 net6 VSS VSS sky130_fd_pr__nfet_g5v0d10v5 L=2 W=5 nf=1 m=2
XM16 net7 net7 VSS VSS sky130_fd_pr__nfet_g5v0d10v5 L=2 W=5 nf=1 m=2
XM17 net8 net6 VSS VSS sky130_fd_pr__nfet_g5v0d10v5 L=2 W=5 nf=1 m=2
XM18 VOUTANALOG net7 VSS VSS sky130_fd_pr__nfet_g5v0d10v5 L=2 W=5 nf=1 m=2
XM19 net9 VOUTANALOG VDD VDD sky130_fd_pr__pfet_g5v0d10v5 L=2 W=10 nf=1 m=1
XM20 net9 VOUTANALOG VSS VSS sky130_fd_pr__nfet_g5v0d10v5 L=2 W=5 nf=1 m=1
XM21 VOUT net9 VDD VDD sky130_fd_pr__pfet_g5v0d10v5 L=2 W=10 nf=1 m=1
XM22 VOUT net9 VSS VSS sky130_fd_pr__nfet_g5v0d10v5 L=2 W=5 nf=1 m=1
XM23 net1 VSS VSS VSS sky130_fd_pr__nfet_g5v0d10v5 L=2 W=5 nf=1 m=2
XM24 net5 VDD VDD VDD sky130_fd_pr__pfet_g5v0d10v5 L=2 W=5 nf=1 m=2
XM25 VSS VSS VSS VSS sky130_fd_pr__nfet_g5v0d10v5 L=2 W=5 nf=1 m=8
XM26 VDD VDD VDD VDD sky130_fd_pr__pfet_g5v0d10v5 L=2 W=5 nf=1 m=8
.ends


* expanding   symbol:  comparator_bias.sym # of pins=4
** sym_path: /home/ahmedreda/Project/AR_SAR_ADC/sample_and_hold/xschem/comparator_bias.sym
** sch_path: /home/ahmedreda/Project/AR_SAR_ADC/sample_and_hold/xschem/comparator_bias.sch
.subckt comparator_bias VDD VSS VBP VBN
*.PININFO VBP:O VBN:O VDD:B VSS:B
XR1 net2 VDD VSS sky130_fd_pr__res_high_po W=1.41 L=141 mult=1 m=1
XM3 net1 net2 VDD VDD sky130_fd_pr__pfet_g5v0d10v5 L=2 W=20 nf=1 m=1
XM4 VBN net1 net2 VDD sky130_fd_pr__pfet_g5v0d10v5 L=2 W=20 nf=1 m=1
XM5 VBN VBN net2 VDD sky130_fd_pr__pfet_g5v0d10v5 L=15 W=1 nf=1 m=1
XM7 VBP VBP VDD VDD sky130_fd_pr__pfet_g5v0d10v5 L=2 W=5 nf=1 m=1
XM1 VBN VBN VSS VSS sky130_fd_pr__nfet_g5v0d10v5 L=2 W=5 nf=1 m=1
XM2 net1 VBN VSS VSS sky130_fd_pr__nfet_g5v0d10v5 L=2 W=5 nf=1 m=1
XM6 VBP VBN VSS VSS sky130_fd_pr__nfet_g5v0d10v5 L=2 W=5 nf=1 m=1
XM8 VBN VSS VSS VSS sky130_fd_pr__nfet_g5v0d10v5 L=2 W=5 nf=1 m=1
XM9 net1 VSS VSS VSS sky130_fd_pr__nfet_g5v0d10v5 L=2 W=5 nf=1 m=1
XM10 VBP VSS VSS VSS sky130_fd_pr__nfet_g5v0d10v5 L=2 W=5 nf=1 m=1
.ends


* expanding   symbol:  dac_half.sym # of pins=21
** sym_path: /home/ahmedreda/Project/AR_SAR_ADC/sample_and_hold/xschem/dac_half.sym
** sch_path: /home/ahmedreda/Project/AR_SAR_ADC/sample_and_hold/xschem/dac_half.sch
.subckt dac_half vdd vss b3 b4 b3b b4b b5 res_in b6 b0 dum_in b6b b5b b0b b1 b1b b2 b2b out res_out
+ dum_out
*.PININFO res_in:I res_out:O out:O vdd:I vss:I b3:I b3b:I b5:I b5b:I b6:I b6b:I dum_out:O dum_in:I
*+ b4:I b4b:I b0:I b0b:I b1:I b1b:I b2:I b2b:I
x1 b2 b2b b1 b1b b0 b0b vdd net9 net8 net44 net16 vss net15 dac_column
x2 b2 b2b b1 b1b b0 b0b vdd net10 net7 net43 net8 vss net9 dac_column
x3 b2 b2b b1 b1b b0 b0b vdd net11 net6 net42 net7 vss net10 dac_column
x4 b2 b2b b1 b1b b0 b0b vdd net12 net5 net41 net6 vss net11 dac_column
x5 b2 b2b b1 b1b b0 b0b vdd net13 net4 net40 net5 vss net12 dac_column
x6 b2 b2b b1 b1b b0 b0b vdd net14 net3 net39 net4 vss net13 dac_column
x7 b2 b2b b1 b1b b0 b0b vdd net2 net1 net38 net3 vss net14 dac_column
x8 b2 b2b b1 b1b b0 b0b vdd dum_in res_in net37 net1 vss net2 dac_column
x9 b2 b2b b1 b1b b0 b0b vdd net25 net24 net52 res_out vss dum_out dac_column
x10 b2 b2b b1 b1b b0 b0b vdd net26 net23 net51 net24 vss net25 dac_column
x11 b2 b2b b1 b1b b0 b0b vdd net27 net22 net50 net23 vss net26 dac_column
x12 b2 b2b b1 b1b b0 b0b vdd net28 net21 net49 net22 vss net27 dac_column
x13 b2 b2b b1 b1b b0 b0b vdd net29 net20 net48 net21 vss net28 dac_column
x14 b2 b2b b1 b1b b0 b0b vdd net30 net19 net47 net20 vss net29 dac_column
x15 b2 b2b b1 b1b b0 b0b vdd net18 net17 net46 net19 vss net30 dac_column
x16 b2 b2b b1 b1b b0 b0b vdd net15 net16 net45 net17 vss net18 dac_column
x17 vdd b4 net31 net54 b4b vss passtrans
x18 vdd b4b net31 net53 b4 vss passtrans
x19 vdd b4 net32 net55 b4b vss passtrans
x20 vdd b4b net32 net56 b4 vss passtrans
x21 vdd b4 net33 net57 b4b vss passtrans
x22 vdd b4b net33 net58 b4 vss passtrans
x23 vdd b4 net34 net59 b4b vss passtrans
x24 vdd b4b net34 net60 b4 vss passtrans
x25 vdd b5b net36 net34 b5 vss passtrans
x26 vdd b5 net36 net33 b5b vss passtrans
x27 vdd b5b net35 net32 b5 vss passtrans
x28 vdd b5 net35 net31 b5b vss passtrans
x29 vdd b6b out net36 b6 vss passtrans
x30 vdd b6 out net35 b6b vss passtrans
x33 vdd b3b net60 net37 b3 vss passtrans
x31 vdd b3 net60 net38 b3b vss passtrans
x32 vdd b3b net59 net39 b3 vss passtrans
x34 vdd b3 net59 net40 b3b vss passtrans
x35 vdd b3b net58 net41 b3 vss passtrans
x36 vdd b3 net58 net42 b3b vss passtrans
x37 vdd b3b net57 net43 b3 vss passtrans
x38 vdd b3 net57 net44 b3b vss passtrans
x39 vdd b3b net56 net45 b3 vss passtrans
x40 vdd b3 net56 net46 b3b vss passtrans
x41 vdd b3b net55 net47 b3 vss passtrans
x42 vdd b3 net55 net48 b3b vss passtrans
x43 vdd b3b net53 net49 b3 vss passtrans
x44 vdd b3 net53 net50 b3b vss passtrans
x45 vdd b3b net54 net51 b3 vss passtrans
x46 vdd b3 net54 net52 b3b vss passtrans
x47 vdd vdd net61 net61 vss vss passtrans
.ends


* expanding   symbol:  passtrans.sym # of pins=6
** sym_path: /home/ahmedreda/Project/AR_SAR_ADC/sample_and_hold/xschem/passtrans.sym
** sch_path: /home/ahmedreda/Project/AR_SAR_ADC/sample_and_hold/xschem/passtrans.sch
.subckt passtrans vdd enab out in ena vss
*.PININFO enab:I ena:I vss:I vdd:I in:I out:O
XM1 in ena out vss sky130_fd_pr__nfet_g5v0d10v5 L=0.5 W=0.65 nf=1 m=1
XM2 in enab out vdd sky130_fd_pr__pfet_g5v0d10v5 L=0.5 W=1 nf=1 m=1
.ends


* expanding   symbol:  level_shifter.sym # of pins=6
** sym_path: /home/ahmedreda/Project/AR_SAR_ADC/sample_and_hold/xschem/level_shifter.sym
** sch_path: /home/ahmedreda/Project/AR_SAR_ADC/sample_and_hold/xschem/level_shifter.sch
.subckt level_shifter vdd dvdd bit_out bitb_out bit_in dvss
*.PININFO bit_in:I bit_out:O bitb_out:O dvss:I dvdd:I vdd:I
x3 net2 dvss dvss vdd vdd net3 sky130_fd_sc_hvl__inv_4
x4 net3 dvss dvss vdd vdd bitb_out sky130_fd_sc_hvl__inv_8
x5 bitb_out dvss dvss vdd vdd bit_out sky130_fd_sc_hvl__inv_8
D1 dvss bit_in sky130_fd_pr__diode_pw2nd_05v5
x2 net1 dvss dvss vdd vdd net2 sky130_fd_sc_hvl__inv_2
x6 bit_in dvdd dvss dvss vdd vdd net1 sky130_fd_sc_hvl__lsbuflv2hv_1
.ends


* expanding   symbol:  dac_column_dummy.sym # of pins=6
** sym_path: /home/ahmedreda/Project/AR_SAR_ADC/sample_and_hold/xschem/dac_column_dummy.sym
** sch_path: /home/ahmedreda/Project/AR_SAR_ADC/sample_and_hold/xschem/dac_column_dummy.sch
.subckt dac_column_dummy vdd dum_in res_in res_out vss dum_out
*.PININFO res_in:I vss:I vdd:I dum_in:I res_out:O dum_out:O
x1 vdd vdd net17 net1 vss vss passtrans
XR1 res_out net1 vss sky130_fd_pr__res_high_po W=0.35 L=3 mult=1 m=1
x2 vdd vdd net16 net2 vss vss passtrans
x3 vdd vdd net15 net3 vss vss passtrans
x4 vdd vdd net14 net4 vss vss passtrans
x5 vdd vdd net13 net5 vss vss passtrans
x6 vdd vdd net12 net6 vss vss passtrans
x7 vdd vdd net10 net7 vss vss passtrans
x8 vdd vdd net11 res_in vss vss passtrans
x9 vdd vdd net8 dum_in vss vss passtrans
x10 vdd vdd net9 res_out vss vss passtrans
XR2 net1 net2 vss sky130_fd_pr__res_high_po W=0.35 L=3 mult=1 m=1
XR3 net2 net3 vss sky130_fd_pr__res_high_po W=0.35 L=3 mult=1 m=1
XR4 net3 net4 vss sky130_fd_pr__res_high_po W=0.35 L=3 mult=1 m=1
XR5 net4 net5 vss sky130_fd_pr__res_high_po W=0.35 L=3 mult=1 m=1
XR6 net5 net6 vss sky130_fd_pr__res_high_po W=0.35 L=3 mult=1 m=1
XR7 net6 net7 vss sky130_fd_pr__res_high_po W=0.35 L=3 mult=1 m=1
XR9 net7 res_in vss sky130_fd_pr__res_high_po W=0.35 L=3 mult=1 m=1
XR10 res_in dum_in vss sky130_fd_pr__res_high_po W=0.35 L=3 mult=1 m=1
XR12 dum_out res_out vss sky130_fd_pr__res_high_po W=0.35 L=3 mult=1 m=1
x11 vdd vdd net12 net12 vss vss passtrans
x12 vdd vdd net13 net13 vss vss passtrans
x13 vdd vdd net14 net14 vss vss passtrans
x14 vdd vdd net15 net15 vss vss passtrans
x15 vdd vdd net11 net11 vss vss passtrans
x16 vdd vdd net16 net16 vss vss passtrans
x17 vdd vdd net8 net8 vss vss passtrans
x18 vdd vdd net9 net9 vss vss passtrans
x19 vdd vdd net10 net10 vss vss passtrans
x20 vdd vdd net17 net17 vss vss passtrans
.ends


* expanding   symbol:  Project/mpw7-main/xschem/bandgap/bandgap.sym # of pins=5
** sym_path: /home/ahmedreda/Project/mpw7-main/xschem/bandgap/bandgap.sym
** sch_path: /home/ahmedreda/Project/mpw7-main/xschem/bandgap/bandgap.sch
.subckt bandgap vdd vbg vss bias trim[15] trim[14] trim[13] trim[12] trim[11] trim[10] trim[9]
+ trim[8] trim[7] trim[6] trim[5] trim[4] trim[3] trim[2] trim[1] trim[0]
*.PININFO vdd:B vss:B vbg:O bias:B trim[15:0]:I
XC1 gate vss sky130_fd_pr__cap_mim_m3_1 W=10 L=10 MF=8 m=8
xres vbg comp vp vn vss bg_res
XR1 net1 vp vss sky130_fd_pr__res_xhigh_po W=0.69 L=13 mult=1 m=1
XM1 comp gate vdd vdd sky130_fd_pr__pfet_01v8 L=1 W=4 nf=1 ad='int((nf+1)/2) * W/nf * 0.29' as='int((nf+2)/2) * W/nf * 0.29'
+ pd='2*int((nf+1)/2) * (W/nf + 0.29)' ps='2*int((nf+2)/2) * (W/nf + 0.29)' nrd='0.29 / W' nrs='0.29 / W'
+ sa=0 sb=0 sd=0 mult=2 m=2
XM2 vbg gate vdd vdd sky130_fd_pr__pfet_01v8 L=1 W=4 nf=1 ad='int((nf+1)/2) * W/nf * 0.29' as='int((nf+2)/2) * W/nf * 0.29'
+ pd='2*int((nf+1)/2) * (W/nf + 0.29)' ps='2*int((nf+2)/2) * (W/nf + 0.29)' nrd='0.29 / W' nrs='0.29 / W'
+ sa=0 sb=0 sd=0 mult=2 m=2
xtr net1 net2 trim[15] trim[14] trim[13] trim[12] trim[11] trim[10] trim[9] trim[8] trim[7] trim[6]
+ trim[5] trim[4] trim[3] trim[2] trim[1] trim[0] vss bg_trim
xamp vdd gate vp vn vss bias se_folded_cascode_p
XM3 vs1 vbg vss vss sky130_fd_pr__nfet_01v8 L=1 W=1 nf=1 ad='int((nf+1)/2) * W/nf * 0.29' as='int((nf+2)/2) * W/nf * 0.29'
+ pd='2*int((nf+1)/2) * (W/nf + 0.29)' ps='2*int((nf+2)/2) * (W/nf + 0.29)' nrd='0.29 / W' nrs='0.29 / W'
+ sa=0 sb=0 sd=0 mult=1 m=1
XM4 gate vs1 vss vss sky130_fd_pr__nfet_01v8 L=1 W=1 nf=1 ad='int((nf+1)/2) * W/nf * 0.29' as='int((nf+2)/2) * W/nf * 0.29'
+ pd='2*int((nf+1)/2) * (W/nf + 0.29)' ps='2*int((nf+2)/2) * (W/nf + 0.29)' nrd='0.29 / W' nrs='0.29 / W'
+ sa=0 sb=0 sd=0 mult=1 m=1
XM5 vs1 vs2 vdd vdd sky130_fd_pr__pfet_01v8 L=1 W=1 nf=1 ad='int((nf+1)/2) * W/nf * 0.29' as='int((nf+2)/2) * W/nf * 0.29'
+ pd='2*int((nf+1)/2) * (W/nf + 0.29)' ps='2*int((nf+2)/2) * (W/nf + 0.29)' nrd='0.29 / W' nrs='0.29 / W'
+ sa=0 sb=0 sd=0 mult=1 m=1
XC2 vs2 vss sky130_fd_pr__cap_mim_m3_1 W=10 L=10 MF=3 m=3
XM6 vs2 vs2 vdd vdd sky130_fd_pr__pfet_01v8 L=1 W=1 nf=1 ad='int((nf+1)/2) * W/nf * 0.29' as='int((nf+2)/2) * W/nf * 0.29'
+ pd='2*int((nf+1)/2) * (W/nf + 0.29)' ps='2*int((nf+2)/2) * (W/nf + 0.29)' nrd='0.29 / W' nrs='0.29 / W'
+ sa=0 sb=0 sd=0 mult=1 m=1
XM7 vss vdd vs2 vs2 sky130_fd_pr__pfet_01v8 L=1 W=1 nf=1 ad='int((nf+1)/2) * W/nf * 0.29' as='int((nf+2)/2) * W/nf * 0.29'
+ pd='2*int((nf+1)/2) * (W/nf + 0.29)' ps='2*int((nf+2)/2) * (W/nf + 0.29)' nrd='0.29 / W' nrs='0.29 / W'
+ sa=0 sb=0 sd=0 mult=1 m=1
XQ1 vss vss vn sky130_fd_pr__pnp_05v5 W=0.68 L=0.68 m=1
XQ2 vss vss net2 sky130_fd_pr__pnp_05v5 W=0.68 L=0.68 m=8
.ends


* expanding   symbol:  Project/mpw7-main/xschem/bias/bias.sym # of pins=7
** sym_path: /home/ahmedreda/Project/mpw7-main/xschem/bias/bias.sym
** sch_path: /home/ahmedreda/Project/mpw7-main/xschem/bias/bias.sch
.subckt bias iamp vbg ibp[3] ibp[2] ibp[1] ibp[0] ibn[1] ibn[0] vdd vss vb[6] vb[5] vb[4] vb[3]
+ vb[2] vb[1] vb[0]
*.PININFO vbg:I iamp:I vdd:B ibp[3:0]:B ibn[1:0]:B vb[6:0]:B vss:B
x1 vdd gate fb vbg vss iamp bias_amp
XMP2[1] gate_cas gate net1[1] vdd sky130_fd_pr__pfet_01v8_lvt L=2 W=0.5 nf=1 ad='int((nf+1)/2) * W/nf * 0.29'
+ as='int((nf+2)/2) * W/nf * 0.29' pd='2*int((nf+1)/2) * (W/nf + 0.29)' ps='2*int((nf+2)/2) * (W/nf + 0.29)'
+ nrd='0.29 / W' nrs='0.29 / W' sa=0 sb=0 sd=0 mult=1 m=1
XMP2[0] gate_cas gate net1[0] vdd sky130_fd_pr__pfet_01v8_lvt L=2 W=0.5 nf=1 ad='int((nf+1)/2) * W/nf * 0.29'
+ as='int((nf+2)/2) * W/nf * 0.29' pd='2*int((nf+1)/2) * (W/nf + 0.29)' ps='2*int((nf+2)/2) * (W/nf + 0.29)'
+ nrd='0.29 / W' nrs='0.29 / W' sa=0 sb=0 sd=0 mult=1 m=1
XM2 fb gate vdd vdd sky130_fd_pr__pfet_01v8_lvt L=2 W=0.5 nf=1 ad='int((nf+1)/2) * W/nf * 0.29' as='int((nf+2)/2) * W/nf * 0.29'
+ pd='2*int((nf+1)/2) * (W/nf + 0.29)' ps='2*int((nf+2)/2) * (W/nf + 0.29)' nrd='0.29 / W' nrs='0.29 / W'
+ sa=0 sb=0 sd=0 mult=8 m=8
XMPS2[1] net1[1] gate vdd vdd sky130_fd_pr__pfet_01v8_lvt L=2 W=0.5 nf=1 ad='int((nf+1)/2) * W/nf * 0.29'
+ as='int((nf+2)/2) * W/nf * 0.29' pd='2*int((nf+1)/2) * (W/nf + 0.29)' ps='2*int((nf+2)/2) * (W/nf + 0.29)'
+ nrd='0.29 / W' nrs='0.29 / W' sa=0 sb=0 sd=0 mult=1 m=1
XMPS2[0] net1[0] gate vdd vdd sky130_fd_pr__pfet_01v8_lvt L=2 W=0.5 nf=1 ad='int((nf+1)/2) * W/nf * 0.29'
+ as='int((nf+2)/2) * W/nf * 0.29' pd='2*int((nf+1)/2) * (W/nf + 0.29)' ps='2*int((nf+2)/2) * (W/nf + 0.29)'
+ nrd='0.29 / W' nrs='0.29 / W' sa=0 sb=0 sd=0 mult=1 m=1
XMP4[1] ibp[1] gate net2[1] vdd sky130_fd_pr__pfet_01v8_lvt L=2 W=0.5 nf=1 ad='int((nf+1)/2) * W/nf * 0.29'
+ as='int((nf+2)/2) * W/nf * 0.29' pd='2*int((nf+1)/2) * (W/nf + 0.29)' ps='2*int((nf+2)/2) * (W/nf + 0.29)'
+ nrd='0.29 / W' nrs='0.29 / W' sa=0 sb=0 sd=0 mult=1 m=1
XMP4[0] ibp[1] gate net2[0] vdd sky130_fd_pr__pfet_01v8_lvt L=2 W=0.5 nf=1 ad='int((nf+1)/2) * W/nf * 0.29'
+ as='int((nf+2)/2) * W/nf * 0.29' pd='2*int((nf+1)/2) * (W/nf + 0.29)' ps='2*int((nf+2)/2) * (W/nf + 0.29)'
+ nrd='0.29 / W' nrs='0.29 / W' sa=0 sb=0 sd=0 mult=1 m=1
XMPS4[1] net2[1] gate vdd vdd sky130_fd_pr__pfet_01v8_lvt L=2 W=0.5 nf=1 ad='int((nf+1)/2) * W/nf * 0.29'
+ as='int((nf+2)/2) * W/nf * 0.29' pd='2*int((nf+1)/2) * (W/nf + 0.29)' ps='2*int((nf+2)/2) * (W/nf + 0.29)'
+ nrd='0.29 / W' nrs='0.29 / W' sa=0 sb=0 sd=0 mult=1 m=1
XMPS4[0] net2[0] gate vdd vdd sky130_fd_pr__pfet_01v8_lvt L=2 W=0.5 nf=1 ad='int((nf+1)/2) * W/nf * 0.29'
+ as='int((nf+2)/2) * W/nf * 0.29' pd='2*int((nf+1)/2) * (W/nf + 0.29)' ps='2*int((nf+2)/2) * (W/nf + 0.29)'
+ nrd='0.29 / W' nrs='0.29 / W' sa=0 sb=0 sd=0 mult=1 m=1
XMP5[1] ibp[2] gate net3[1] vdd sky130_fd_pr__pfet_01v8_lvt L=2 W=0.5 nf=1 ad='int((nf+1)/2) * W/nf * 0.29'
+ as='int((nf+2)/2) * W/nf * 0.29' pd='2*int((nf+1)/2) * (W/nf + 0.29)' ps='2*int((nf+2)/2) * (W/nf + 0.29)'
+ nrd='0.29 / W' nrs='0.29 / W' sa=0 sb=0 sd=0 mult=1 m=1
XMP5[0] ibp[2] gate net3[0] vdd sky130_fd_pr__pfet_01v8_lvt L=2 W=0.5 nf=1 ad='int((nf+1)/2) * W/nf * 0.29'
+ as='int((nf+2)/2) * W/nf * 0.29' pd='2*int((nf+1)/2) * (W/nf + 0.29)' ps='2*int((nf+2)/2) * (W/nf + 0.29)'
+ nrd='0.29 / W' nrs='0.29 / W' sa=0 sb=0 sd=0 mult=1 m=1
XMPS5[1] net3[1] gate vdd vdd sky130_fd_pr__pfet_01v8_lvt L=2 W=0.5 nf=1 ad='int((nf+1)/2) * W/nf * 0.29'
+ as='int((nf+2)/2) * W/nf * 0.29' pd='2*int((nf+1)/2) * (W/nf + 0.29)' ps='2*int((nf+2)/2) * (W/nf + 0.29)'
+ nrd='0.29 / W' nrs='0.29 / W' sa=0 sb=0 sd=0 mult=1 m=1
XMPS5[0] net3[0] gate vdd vdd sky130_fd_pr__pfet_01v8_lvt L=2 W=0.5 nf=1 ad='int((nf+1)/2) * W/nf * 0.29'
+ as='int((nf+2)/2) * W/nf * 0.29' pd='2*int((nf+1)/2) * (W/nf + 0.29)' ps='2*int((nf+2)/2) * (W/nf + 0.29)'
+ nrd='0.29 / W' nrs='0.29 / W' sa=0 sb=0 sd=0 mult=1 m=1
XMP6[1] ibp[3] gate net4[1] vdd sky130_fd_pr__pfet_01v8_lvt L=2 W=0.5 nf=1 ad='int((nf+1)/2) * W/nf * 0.29'
+ as='int((nf+2)/2) * W/nf * 0.29' pd='2*int((nf+1)/2) * (W/nf + 0.29)' ps='2*int((nf+2)/2) * (W/nf + 0.29)'
+ nrd='0.29 / W' nrs='0.29 / W' sa=0 sb=0 sd=0 mult=1 m=1
XMP6[0] ibp[3] gate net4[0] vdd sky130_fd_pr__pfet_01v8_lvt L=2 W=0.5 nf=1 ad='int((nf+1)/2) * W/nf * 0.29'
+ as='int((nf+2)/2) * W/nf * 0.29' pd='2*int((nf+1)/2) * (W/nf + 0.29)' ps='2*int((nf+2)/2) * (W/nf + 0.29)'
+ nrd='0.29 / W' nrs='0.29 / W' sa=0 sb=0 sd=0 mult=1 m=1
XMPS6[1] net4[1] gate vdd vdd sky130_fd_pr__pfet_01v8_lvt L=2 W=0.5 nf=1 ad='int((nf+1)/2) * W/nf * 0.29'
+ as='int((nf+2)/2) * W/nf * 0.29' pd='2*int((nf+1)/2) * (W/nf + 0.29)' ps='2*int((nf+2)/2) * (W/nf + 0.29)'
+ nrd='0.29 / W' nrs='0.29 / W' sa=0 sb=0 sd=0 mult=1 m=1
XMPS6[0] net4[0] gate vdd vdd sky130_fd_pr__pfet_01v8_lvt L=2 W=0.5 nf=1 ad='int((nf+1)/2) * W/nf * 0.29'
+ as='int((nf+2)/2) * W/nf * 0.29' pd='2*int((nf+1)/2) * (W/nf + 0.29)' ps='2*int((nf+2)/2) * (W/nf + 0.29)'
+ nrd='0.29 / W' nrs='0.29 / W' sa=0 sb=0 sd=0 mult=1 m=1
XMP3[3] ibp[0] gate net5[3] vdd sky130_fd_pr__pfet_01v8_lvt L=2 W=0.5 nf=1 ad='int((nf+1)/2) * W/nf * 0.29'
+ as='int((nf+2)/2) * W/nf * 0.29' pd='2*int((nf+1)/2) * (W/nf + 0.29)' ps='2*int((nf+2)/2) * (W/nf + 0.29)'
+ nrd='0.29 / W' nrs='0.29 / W' sa=0 sb=0 sd=0 mult=1 m=1
XMP3[2] ibp[0] gate net5[2] vdd sky130_fd_pr__pfet_01v8_lvt L=2 W=0.5 nf=1 ad='int((nf+1)/2) * W/nf * 0.29'
+ as='int((nf+2)/2) * W/nf * 0.29' pd='2*int((nf+1)/2) * (W/nf + 0.29)' ps='2*int((nf+2)/2) * (W/nf + 0.29)'
+ nrd='0.29 / W' nrs='0.29 / W' sa=0 sb=0 sd=0 mult=1 m=1
XMP3[1] ibp[0] gate net5[1] vdd sky130_fd_pr__pfet_01v8_lvt L=2 W=0.5 nf=1 ad='int((nf+1)/2) * W/nf * 0.29'
+ as='int((nf+2)/2) * W/nf * 0.29' pd='2*int((nf+1)/2) * (W/nf + 0.29)' ps='2*int((nf+2)/2) * (W/nf + 0.29)'
+ nrd='0.29 / W' nrs='0.29 / W' sa=0 sb=0 sd=0 mult=1 m=1
XMP3[0] ibp[0] gate net5[0] vdd sky130_fd_pr__pfet_01v8_lvt L=2 W=0.5 nf=1 ad='int((nf+1)/2) * W/nf * 0.29'
+ as='int((nf+2)/2) * W/nf * 0.29' pd='2*int((nf+1)/2) * (W/nf + 0.29)' ps='2*int((nf+2)/2) * (W/nf + 0.29)'
+ nrd='0.29 / W' nrs='0.29 / W' sa=0 sb=0 sd=0 mult=1 m=1
XMPS3[3] net5[3] gate vdd vdd sky130_fd_pr__pfet_01v8_lvt L=2 W=0.5 nf=1 ad='int((nf+1)/2) * W/nf * 0.29'
+ as='int((nf+2)/2) * W/nf * 0.29' pd='2*int((nf+1)/2) * (W/nf + 0.29)' ps='2*int((nf+2)/2) * (W/nf + 0.29)'
+ nrd='0.29 / W' nrs='0.29 / W' sa=0 sb=0 sd=0 mult=1 m=1
XMPS3[2] net5[2] gate vdd vdd sky130_fd_pr__pfet_01v8_lvt L=2 W=0.5 nf=1 ad='int((nf+1)/2) * W/nf * 0.29'
+ as='int((nf+2)/2) * W/nf * 0.29' pd='2*int((nf+1)/2) * (W/nf + 0.29)' ps='2*int((nf+2)/2) * (W/nf + 0.29)'
+ nrd='0.29 / W' nrs='0.29 / W' sa=0 sb=0 sd=0 mult=1 m=1
XMPS3[1] net5[1] gate vdd vdd sky130_fd_pr__pfet_01v8_lvt L=2 W=0.5 nf=1 ad='int((nf+1)/2) * W/nf * 0.29'
+ as='int((nf+2)/2) * W/nf * 0.29' pd='2*int((nf+1)/2) * (W/nf + 0.29)' ps='2*int((nf+2)/2) * (W/nf + 0.29)'
+ nrd='0.29 / W' nrs='0.29 / W' sa=0 sb=0 sd=0 mult=1 m=1
XMPS3[0] net5[0] gate vdd vdd sky130_fd_pr__pfet_01v8_lvt L=2 W=0.5 nf=1 ad='int((nf+1)/2) * W/nf * 0.29'
+ as='int((nf+2)/2) * W/nf * 0.29' pd='2*int((nf+1)/2) * (W/nf + 0.29)' ps='2*int((nf+2)/2) * (W/nf + 0.29)'
+ nrd='0.29 / W' nrs='0.29 / W' sa=0 sb=0 sd=0 mult=1 m=1
XMNS2[3] gate_n gate_n vss vss sky130_fd_pr__nfet_01v8_lvt L=2 W=1 nf=1 ad='int((nf+1)/2) * W/nf * 0.29'
+ as='int((nf+2)/2) * W/nf * 0.29' pd='2*int((nf+1)/2) * (W/nf + 0.29)' ps='2*int((nf+2)/2) * (W/nf + 0.29)'
+ nrd='0.29 / W' nrs='0.29 / W' sa=0 sb=0 sd=0 mult=1 m=1
XMNS2[2] gate_n gate_n vss vss sky130_fd_pr__nfet_01v8_lvt L=2 W=1 nf=1 ad='int((nf+1)/2) * W/nf * 0.29'
+ as='int((nf+2)/2) * W/nf * 0.29' pd='2*int((nf+1)/2) * (W/nf + 0.29)' ps='2*int((nf+2)/2) * (W/nf + 0.29)'
+ nrd='0.29 / W' nrs='0.29 / W' sa=0 sb=0 sd=0 mult=1 m=1
XMNS2[1] gate_n gate_n vss vss sky130_fd_pr__nfet_01v8_lvt L=2 W=1 nf=1 ad='int((nf+1)/2) * W/nf * 0.29'
+ as='int((nf+2)/2) * W/nf * 0.29' pd='2*int((nf+1)/2) * (W/nf + 0.29)' ps='2*int((nf+2)/2) * (W/nf + 0.29)'
+ nrd='0.29 / W' nrs='0.29 / W' sa=0 sb=0 sd=0 mult=1 m=1
XMNS2[0] gate_n gate_n vss vss sky130_fd_pr__nfet_01v8_lvt L=2 W=1 nf=1 ad='int((nf+1)/2) * W/nf * 0.29'
+ as='int((nf+2)/2) * W/nf * 0.29' pd='2*int((nf+1)/2) * (W/nf + 0.29)' ps='2*int((nf+2)/2) * (W/nf + 0.29)'
+ nrd='0.29 / W' nrs='0.29 / W' sa=0 sb=0 sd=0 mult=1 m=1
XMNS3[3] net6[3] gate_n vss vss sky130_fd_pr__nfet_01v8_lvt L=2 W=1 nf=1 ad='int((nf+1)/2) * W/nf * 0.29'
+ as='int((nf+2)/2) * W/nf * 0.29' pd='2*int((nf+1)/2) * (W/nf + 0.29)' ps='2*int((nf+2)/2) * (W/nf + 0.29)'
+ nrd='0.29 / W' nrs='0.29 / W' sa=0 sb=0 sd=0 mult=1 m=1
XMNS3[2] net6[2] gate_n vss vss sky130_fd_pr__nfet_01v8_lvt L=2 W=1 nf=1 ad='int((nf+1)/2) * W/nf * 0.29'
+ as='int((nf+2)/2) * W/nf * 0.29' pd='2*int((nf+1)/2) * (W/nf + 0.29)' ps='2*int((nf+2)/2) * (W/nf + 0.29)'
+ nrd='0.29 / W' nrs='0.29 / W' sa=0 sb=0 sd=0 mult=1 m=1
XMNS3[1] net6[1] gate_n vss vss sky130_fd_pr__nfet_01v8_lvt L=2 W=1 nf=1 ad='int((nf+1)/2) * W/nf * 0.29'
+ as='int((nf+2)/2) * W/nf * 0.29' pd='2*int((nf+1)/2) * (W/nf + 0.29)' ps='2*int((nf+2)/2) * (W/nf + 0.29)'
+ nrd='0.29 / W' nrs='0.29 / W' sa=0 sb=0 sd=0 mult=1 m=1
XMNS3[0] net6[0] gate_n vss vss sky130_fd_pr__nfet_01v8_lvt L=2 W=1 nf=1 ad='int((nf+1)/2) * W/nf * 0.29'
+ as='int((nf+2)/2) * W/nf * 0.29' pd='2*int((nf+1)/2) * (W/nf + 0.29)' ps='2*int((nf+2)/2) * (W/nf + 0.29)'
+ nrd='0.29 / W' nrs='0.29 / W' sa=0 sb=0 sd=0 mult=1 m=1
XMNS4[3] net7[3] gate_n vss vss sky130_fd_pr__nfet_01v8_lvt L=2 W=1 nf=1 ad='int((nf+1)/2) * W/nf * 0.29'
+ as='int((nf+2)/2) * W/nf * 0.29' pd='2*int((nf+1)/2) * (W/nf + 0.29)' ps='2*int((nf+2)/2) * (W/nf + 0.29)'
+ nrd='0.29 / W' nrs='0.29 / W' sa=0 sb=0 sd=0 mult=1 m=1
XMNS4[2] net7[2] gate_n vss vss sky130_fd_pr__nfet_01v8_lvt L=2 W=1 nf=1 ad='int((nf+1)/2) * W/nf * 0.29'
+ as='int((nf+2)/2) * W/nf * 0.29' pd='2*int((nf+1)/2) * (W/nf + 0.29)' ps='2*int((nf+2)/2) * (W/nf + 0.29)'
+ nrd='0.29 / W' nrs='0.29 / W' sa=0 sb=0 sd=0 mult=1 m=1
XMNS4[1] net7[1] gate_n vss vss sky130_fd_pr__nfet_01v8_lvt L=2 W=1 nf=1 ad='int((nf+1)/2) * W/nf * 0.29'
+ as='int((nf+2)/2) * W/nf * 0.29' pd='2*int((nf+1)/2) * (W/nf + 0.29)' ps='2*int((nf+2)/2) * (W/nf + 0.29)'
+ nrd='0.29 / W' nrs='0.29 / W' sa=0 sb=0 sd=0 mult=1 m=1
XMNS4[0] net7[0] gate_n vss vss sky130_fd_pr__nfet_01v8_lvt L=2 W=1 nf=1 ad='int((nf+1)/2) * W/nf * 0.29'