* NGSPICE file created from EF_ADCS0808NSCM.ext - technology: sky130A

.subckt sky130_fd_pr__pfet_g5v0d10v5_U62SY6 a_n187_n64# w_n387_n362# a_129_n64# a_29_n161#
+ a_n129_n161# a_n29_n64#
X0 a_129_n64# a_29_n161# a_n29_n64# w_n387_n362# sky130_fd_pr__pfet_g5v0d10v5 ad=2.9e+11p pd=2.58e+06u as=2.9e+11p ps=2.58e+06u w=1e+06u l=500000u
X1 a_n29_n64# a_n129_n161# a_n187_n64# w_n387_n362# sky130_fd_pr__pfet_g5v0d10v5 ad=0p pd=0u as=2.9e+11p ps=2.58e+06u w=1e+06u l=500000u
.ends

.subckt sky130_fd_pr__nfet_g5v0d10v5_EJGQFX a_129_n200# a_29_n288# a_n129_n288# a_n321_n422#
+ a_n29_n200# a_n187_n200#
X0 a_129_n200# a_29_n288# a_n29_n200# a_n321_n422# sky130_fd_pr__nfet_g5v0d10v5 ad=5.8e+11p pd=4.58e+06u as=5.8e+11p ps=4.58e+06u w=2e+06u l=500000u
X1 a_n29_n200# a_n129_n288# a_n187_n200# a_n321_n422# sky130_fd_pr__nfet_g5v0d10v5 ad=0p pd=0u as=5.8e+11p ps=4.58e+06u w=2e+06u l=500000u
.ends

.subckt sky130_fd_pr__pfet_g5v0d10v5_U6NWY6 a_n108_n64# a_50_n64# a_n50_n161# w_n308_n362#
X0 a_50_n64# a_n50_n161# a_n108_n64# w_n308_n362# sky130_fd_pr__pfet_g5v0d10v5 ad=2.9e+11p pd=2.58e+06u as=2.9e+11p ps=2.58e+06u w=1e+06u l=500000u
.ends

.subckt sky130_fd_pr__nfet_g5v0d10v5_WSEQJ8 a_50_n200# a_n242_n422# a_n108_n200# a_n50_n288#
X0 a_50_n200# a_n50_n288# a_n108_n200# a_n242_n422# sky130_fd_pr__nfet_g5v0d10v5 ad=5.8e+11p pd=4.58e+06u as=5.8e+11p ps=4.58e+06u w=2e+06u l=500000u
.ends

.subckt sky130_fd_pr__diode_pw2nd_05v5_FT76RJ a_n147_n147# a_n45_n45#
D0 a_n147_n147# a_n45_n45# sky130_fd_pr__diode_pw2nd_05v5
.ends

.subckt balanced_switch hold out in vdd vss
Xsky130_fd_pr__pfet_g5v0d10v5_U62SY6_0 holdp vdd holdp holdb holdb vdd sky130_fd_pr__pfet_g5v0d10v5_U62SY6
XXM1 out holdb holdb vss in out sky130_fd_pr__nfet_g5v0d10v5_EJGQFX
Xsky130_fd_pr__pfet_g5v0d10v5_U6NWY6_0 in in holdb vdd sky130_fd_pr__pfet_g5v0d10v5_U6NWY6
XXM3 in vss in holdp sky130_fd_pr__nfet_g5v0d10v5_WSEQJ8
XXM4 out vdd out holdp holdp in sky130_fd_pr__pfet_g5v0d10v5_U62SY6
XXM5 out vss out holdp sky130_fd_pr__nfet_g5v0d10v5_WSEQJ8
XXM6 out out holdb vdd sky130_fd_pr__pfet_g5v0d10v5_U6NWY6
XXM7 holdb vdd holdb hold hold vdd sky130_fd_pr__pfet_g5v0d10v5_U62SY6
XXM8 holdb vss vss hold sky130_fd_pr__nfet_g5v0d10v5_WSEQJ8
XXD1 vss hold sky130_fd_pr__diode_pw2nd_05v5_FT76RJ
XXM10 holdp vss vss holdb sky130_fd_pr__nfet_g5v0d10v5_WSEQJ8
.ends

.subckt sky130_fd_pr__nfet_g5v0d10v5_EJGQJV a_50_n100# a_n242_n322# a_n108_n100# a_n50_n188#
X0 a_50_n100# a_n50_n188# a_n108_n100# a_n242_n322# sky130_fd_pr__nfet_g5v0d10v5 ad=2.9e+11p pd=2.58e+06u as=2.9e+11p ps=2.58e+06u w=1e+06u l=500000u
.ends

.subckt sky130_fd_pr__res_xhigh_po_0p35_D7NTZ8 a_n194_2500# a_442_n2932# a_n512_n2932#
+ a_n512_2500# a_n642_n3062# a_124_n2932# a_124_2500# a_442_2500# a_n194_n2932#
X0 a_n194_n2932# a_n194_2500# a_n642_n3062# sky130_fd_pr__res_xhigh_po w=350000u l=2.5e+07u
X1 a_n512_n2932# a_n512_2500# a_n642_n3062# sky130_fd_pr__res_xhigh_po w=350000u l=2.5e+07u
X2 a_442_n2932# a_442_2500# a_n642_n3062# sky130_fd_pr__res_xhigh_po w=350000u l=2.5e+07u
X3 a_124_n2932# a_124_2500# a_n642_n3062# sky130_fd_pr__res_xhigh_po w=350000u l=2.5e+07u
.ends

.subckt sky130_fd_pr__nfet_03v3_nvt_EJGQJV a_50_n100# a_n242_n322# a_n108_n100# a_n50_n188#
X0 a_50_n100# a_n50_n188# a_n108_n100# a_n242_n322# sky130_fd_pr__nfet_03v3_nvt ad=2.9e+11p pd=2.58e+06u as=2.9e+11p ps=2.58e+06u w=1e+06u l=500000u
.ends

.subckt sky130_fd_pr__diode_pw2nd_05v5_L93GHW a_n162_n162# a_n60_n60#
D0 a_n162_n162# a_n60_n60# sky130_fd_pr__diode_pw2nd_05v5
.ends

.subckt sky130_fd_pr__pfet_g5v0d10v5_AQ2AJT a_n761_n197# a_503_n1069# a_2815_336#
+ a_n129_675# a_1077_336# a_1293_n197# a_n445_n1069# a_n2715_336# a_n977_336# a_2715_n633#
+ a_1709_n100# a_1393_772# a_n2341_239# a_n2973_n633# a_3031_n633# a_n1293_772# a_n2341_n197#
+ a_2025_n100# a_n919_n1069# a_2873_239# a_1925_239# a_1135_n1069# a_n1551_n1069#
+ a_1925_n633# a_1609_n1069# a_1077_n972# a_n1551_n197# a_2241_n633# a_3131_772# a_1235_n100#
+ a_n3031_772# a_n345_772# a_129_336# a_n2715_n536# a_345_n1069# a_445_772# a_n287_n1069#
+ a_n2657_675# a_2241_675# a_n3031_n536# a_2715_n197# a_n1709_675# a_187_239# a_761_n100#
+ a_819_n1069# a_1451_n633# a_2499_n972# a_n2973_n197# a_3031_n197# a_2657_n100# a_n661_n536#
+ a_n1393_n1069# a_287_n536# a_n1925_n536# w_n3389_n1269# a_n2241_n536# a_n1867_n1069#
+ a_1925_n197# a_603_n972# a_2657_336# a_2873_n633# a_n2557_336# a_1709_336# a_2241_n197#
+ a_1867_n100# a_n1609_336# a_n761_n1069# a_2973_772# a_n2183_239# a_n2873_772# a_2183_n100#
+ a_187_n1069# a_n1925_772# a_n1235_239# a_1767_239# a_n1451_n536# a_n1551_675# a_n29_n100#
+ a_1451_n1069# a_1451_n197# a_1709_n972# a_1925_n1069# a_1393_n100# a_2025_n972#
+ a_2025_772# a_n187_772# a_n29_336# a_n2873_n536# a_287_772# a_n603_675# a_1551_336#
+ a_661_n1069# a_n2499_675# a_2083_675# a_n1451_336# a_2873_n197# a_1135_675# a_819_239#
+ a_1235_n972# a_919_n536# a_1293_n1069# a_n187_n100# a_761_n972# a_2499_336# a_1767_n1069#
+ a_n503_336# a_n2399_336# a_2657_n972# a_2815_n100# a_603_336# a_1867_772# a_n2815_239#
+ a_n1077_239# a_n1767_772# a_3131_n100# a_445_n536# a_n1393_675# a_661_239# a_1867_n972#
+ a_977_n1069# a_2183_n972# a_n3189_n100# a_2341_n100# a_n819_772# a_n129_239# a_n2025_n1069#
+ a_n29_n972# a_n3131_675# a_n445_675# a_1393_336# a_919_772# a_n1293_336# a_2715_675#
+ a_1393_n972# a_n2399_n100# a_1551_n100# a_977_675# a_n819_n100# a_1077_n536# a_3131_336#
+ a_n3031_336# a_n345_336# a_2973_n100# a_29_n633# a_n661_772# a_445_336# a_n2657_239#
+ a_2241_239# a_n1709_239# a_761_772# a_n187_n972# a_2499_n536# a_n2973_675# a_n345_n100#
+ a_n129_n633# a_n1609_n100# a_2815_n972# a_3131_n972# a_603_n536# a_n2341_n1069#
+ a_2973_336# a_187_n633# a_n287_675# a_n2025_675# a_n2873_336# a_2557_675# a_n1925_336#
+ a_1609_675# a_29_n197# a_n3189_n972# a_n2815_n1069# a_n1135_n100# a_2341_n972# a_n1551_239#
+ a_1709_n536# a_n977_n100# a_n129_n197# a_2025_n536# a_2025_336# a_n2399_n972# a_n187_336#
+ a_1551_n972# a_n2557_n100# a_2341_772# a_29_675# a_n2241_772# a_n603_239# a_287_336#
+ a_n2499_239# a_2083_239# a_n2183_n1069# a_n819_n972# a_1135_239# a_187_n197# a_1235_n536#
+ a_n1867_675# a_1451_675# a_n287_n633# a_n2657_n1069# a_n1767_n100# a_2973_n972#
+ a_n2083_n100# a_761_n536# a_n3189_772# a_819_n633# a_n345_n972# a_2657_n536# a_n503_n100#
+ a_2241_n1069# a_n919_675# a_n1609_n972# a_1867_336# a_2399_675# a_n1767_336# a_129_n100#
+ a_n1293_n100# a_n1393_239# a_n1077_n633# a_2715_n1069# a_503_675# a_1867_n536# a_n2499_n1069#
+ a_345_n633# a_2183_n536# a_n287_n197# a_n1135_n972# a_n819_336# a_2183_772# a_n3131_239#
+ a_n2499_n633# a_n29_n536# a_n2083_772# a_1235_772# a_n445_239# a_n1135_772# a_919_336#
+ a_n977_n972# a_2715_239# a_819_n197# a_n761_675# a_2083_n1069# a_1393_n536# a_n919_n633#
+ a_1293_675# a_977_239# a_n2557_n972# a_2557_n1069# a_n2973_n1069# a_n2715_n100#
+ a_n1077_n197# a_n3031_n100# a_977_n633# a_345_n197# a_n661_n100# a_3031_675# a_n661_336#
+ a_n1767_n972# a_n445_n633# a_287_n100# a_n1925_n100# a_n2083_n972# a_761_336# a_n2499_n197#
+ a_n1709_n633# a_n2973_239# a_n187_n536# a_n2241_n100# a_29_n1069# a_345_675# a_n2025_n633#
+ a_n919_n197# a_n503_n972# a_2815_n536# a_2399_n1069# a_129_n972# a_3131_n536# a_n1293_n972#
+ a_2399_n633# a_n1451_n100# a_n1235_n633# a_2815_772# a_n977_772# a_1077_772# a_n2025_239#
+ a_n287_239# a_n2715_772# a_977_n197# a_2557_239# a_n2341_675# a_1609_239# a_n3189_n536#
+ a_503_n633# a_2341_n536# a_2873_675# a_n445_n197# a_1925_675# a_n1709_n197# a_n2873_n100#
+ a_n2657_n633# a_2873_n1069# a_n2025_n197# a_n2399_n536# a_1551_n536# a_29_239# a_2341_336#
+ a_129_772# a_919_n100# a_n2241_336# a_2399_n197# a_1609_n633# a_n2715_n972# a_n819_n536#
+ a_n1867_n633# a_n1235_n197# a_n3031_n972# a_187_675# a_n1867_239# a_n2183_n633#
+ a_1451_239# a_n661_n972# a_2973_n536# a_503_n197# a_287_n972# a_n3131_n1069# a_n1925_n972#
+ a_n603_n633# a_445_n100# a_n3189_336# a_1135_n633# a_n2241_n972# a_n2657_n197# a_n345_n536#
+ a_n1393_n633# a_2657_772# a_n2557_772# a_1709_772# a_n919_239# a_n1609_n536# a_n1609_772#
+ a_2399_239# a_n2183_675# a_661_n633# a_n1235_675# a_1609_n197# a_503_239# a_1767_675#
+ a_n1451_n972# a_n1867_n197# a_2557_n633# a_n2183_n197# a_n1135_n536# a_n129_n1069#
+ a_2183_336# a_n603_n197# a_n2083_336# a_1767_n633# a_n29_772# a_1235_336# a_1135_n197#
+ a_n2873_n972# a_n1135_336# a_n977_n536# a_n1393_n197# a_2083_n633# a_1551_772# a_n761_239#
+ a_1077_n100# a_n2815_n633# a_n1451_772# a_n1235_n1069# a_819_675# a_1293_239# a_n3131_n633#
+ a_n2557_n536# a_661_n197# a_919_n972# a_n1709_n1069# a_n761_n633# a_2557_n197# a_3031_n1069#
+ a_1293_n633# a_2499_n100# a_n603_n1069# a_n503_772# a_2499_772# a_n2341_n633# a_3031_239#
+ a_n2399_772# a_n1767_n536# a_603_772# a_n2083_n536# a_n2815_675# a_1767_n197# a_445_n972#
+ a_n1077_675# a_345_239# a_603_n100# a_2083_n197# a_661_675# a_n2815_n197# a_n1077_n1069#
+ a_n503_n536# a_n1551_n633# a_n3131_n197# a_129_n536# a_n1293_n536#
X0 a_n2557_772# a_n2657_675# a_n2715_772# w_n3389_n1269# sky130_fd_pr__pfet_g5v0d10v5 ad=2.9e+11p pd=2.58e+06u as=2.9e+11p ps=2.58e+06u w=1e+06u l=500000u
X1 a_287_n100# a_187_n197# a_129_n100# w_n3389_n1269# sky130_fd_pr__pfet_g5v0d10v5 ad=2.9e+11p pd=2.58e+06u as=2.9e+11p ps=2.58e+06u w=1e+06u l=500000u
X2 a_1709_n100# a_1609_n197# a_1551_n100# w_n3389_n1269# sky130_fd_pr__pfet_g5v0d10v5 ad=2.9e+11p pd=2.58e+06u as=2.9e+11p ps=2.58e+06u w=1e+06u l=500000u
X3 a_1077_772# a_977_675# a_919_772# w_n3389_n1269# sky130_fd_pr__pfet_g5v0d10v5 ad=2.9e+11p pd=2.58e+06u as=2.9e+11p ps=2.58e+06u w=1e+06u l=500000u
X4 a_n2083_772# a_n2183_675# a_n2241_772# w_n3389_n1269# sky130_fd_pr__pfet_g5v0d10v5 ad=2.9e+11p pd=2.58e+06u as=2.9e+11p ps=2.58e+06u w=1e+06u l=500000u
X5 a_1235_n100# a_1135_n197# a_1077_n100# w_n3389_n1269# sky130_fd_pr__pfet_g5v0d10v5 ad=2.9e+11p pd=2.58e+06u as=2.9e+11p ps=2.58e+06u w=1e+06u l=500000u
X6 a_2025_772# a_1925_675# a_1867_772# w_n3389_n1269# sky130_fd_pr__pfet_g5v0d10v5 ad=2.9e+11p pd=2.58e+06u as=2.9e+11p ps=2.58e+06u w=1e+06u l=500000u
X7 a_n1925_336# a_n2025_239# a_n2083_336# w_n3389_n1269# sky130_fd_pr__pfet_g5v0d10v5 ad=2.9e+11p pd=2.58e+06u as=2.9e+11p ps=2.58e+06u w=1e+06u l=500000u
X8 a_919_336# a_819_239# a_761_336# w_n3389_n1269# sky130_fd_pr__pfet_g5v0d10v5 ad=2.9e+11p pd=2.58e+06u as=2.9e+11p ps=2.58e+06u w=1e+06u l=500000u
X9 a_1551_772# a_1451_675# a_1393_772# w_n3389_n1269# sky130_fd_pr__pfet_g5v0d10v5 ad=2.9e+11p pd=2.58e+06u as=2.9e+11p ps=2.58e+06u w=1e+06u l=500000u
X10 a_445_336# a_345_239# a_287_336# w_n3389_n1269# sky130_fd_pr__pfet_g5v0d10v5 ad=2.9e+11p pd=2.58e+06u as=2.9e+11p ps=2.58e+06u w=1e+06u l=500000u
X11 a_n977_n972# a_n1077_n1069# a_n1135_n972# w_n3389_n1269# sky130_fd_pr__pfet_g5v0d10v5 ad=2.9e+11p pd=2.58e+06u as=2.9e+11p ps=2.58e+06u w=1e+06u l=500000u
X12 a_919_n100# a_819_n197# a_761_n100# w_n3389_n1269# sky130_fd_pr__pfet_g5v0d10v5 ad=2.9e+11p pd=2.58e+06u as=2.9e+11p ps=2.58e+06u w=1e+06u l=500000u
X13 a_n1925_n100# a_n2025_n197# a_n2083_n100# w_n3389_n1269# sky130_fd_pr__pfet_g5v0d10v5 ad=2.9e+11p pd=2.58e+06u as=2.9e+11p ps=2.58e+06u w=1e+06u l=500000u
X14 a_445_n100# a_345_n197# a_287_n100# w_n3389_n1269# sky130_fd_pr__pfet_g5v0d10v5 ad=2.9e+11p pd=2.58e+06u as=0p ps=0u w=1e+06u l=500000u
X15 a_n2715_772# a_n2815_675# a_n2873_772# w_n3389_n1269# sky130_fd_pr__pfet_g5v0d10v5 ad=0p pd=0u as=2.9e+11p ps=2.58e+06u w=1e+06u l=500000u
X16 a_1077_n972# a_977_n1069# a_919_n972# w_n3389_n1269# sky130_fd_pr__pfet_g5v0d10v5 ad=2.9e+11p pd=2.58e+06u as=2.9e+11p ps=2.58e+06u w=1e+06u l=500000u
X17 a_n2241_772# a_n2341_675# a_n2399_772# w_n3389_n1269# sky130_fd_pr__pfet_g5v0d10v5 ad=0p pd=0u as=2.9e+11p ps=2.58e+06u w=1e+06u l=500000u
X18 a_n503_n972# a_n603_n1069# a_n661_n972# w_n3389_n1269# sky130_fd_pr__pfet_g5v0d10v5 ad=2.9e+11p pd=2.58e+06u as=2.9e+11p ps=2.58e+06u w=1e+06u l=500000u
X19 a_3131_336# a_3031_239# a_2973_336# w_n3389_n1269# sky130_fd_pr__pfet_g5v0d10v5 ad=2.9e+11p pd=2.58e+06u as=2.9e+11p ps=2.58e+06u w=1e+06u l=500000u
X20 a_2657_n972# a_2557_n1069# a_2499_n972# w_n3389_n1269# sky130_fd_pr__pfet_g5v0d10v5 ad=2.9e+11p pd=2.58e+06u as=2.9e+11p ps=2.58e+06u w=1e+06u l=500000u
X21 a_1235_n536# a_1135_n633# a_1077_n536# w_n3389_n1269# sky130_fd_pr__pfet_g5v0d10v5 ad=2.9e+11p pd=2.58e+06u as=2.9e+11p ps=2.58e+06u w=1e+06u l=500000u
X22 a_n1135_n536# a_n1235_n633# a_n1293_n536# w_n3389_n1269# sky130_fd_pr__pfet_g5v0d10v5 ad=2.9e+11p pd=2.58e+06u as=2.9e+11p ps=2.58e+06u w=1e+06u l=500000u
X23 a_761_772# a_661_675# a_603_772# w_n3389_n1269# sky130_fd_pr__pfet_g5v0d10v5 ad=2.9e+11p pd=2.58e+06u as=2.9e+11p ps=2.58e+06u w=1e+06u l=500000u
X24 a_n2557_n972# a_n2657_n1069# a_n2715_n972# w_n3389_n1269# sky130_fd_pr__pfet_g5v0d10v5 ad=2.9e+11p pd=2.58e+06u as=2.9e+11p ps=2.58e+06u w=1e+06u l=500000u
X25 a_603_336# a_503_239# a_445_336# w_n3389_n1269# sky130_fd_pr__pfet_g5v0d10v5 ad=2.9e+11p pd=2.58e+06u as=0p ps=0u w=1e+06u l=500000u
X26 a_3131_n100# a_3031_n197# a_2973_n100# w_n3389_n1269# sky130_fd_pr__pfet_g5v0d10v5 ad=2.9e+11p pd=2.58e+06u as=2.9e+11p ps=2.58e+06u w=1e+06u l=500000u
X27 a_603_n100# a_503_n197# a_445_n100# w_n3389_n1269# sky130_fd_pr__pfet_g5v0d10v5 ad=2.9e+11p pd=2.58e+06u as=0p ps=0u w=1e+06u l=500000u
X28 a_2815_n536# a_2715_n633# a_2657_n536# w_n3389_n1269# sky130_fd_pr__pfet_g5v0d10v5 ad=2.9e+11p pd=2.58e+06u as=2.9e+11p ps=2.58e+06u w=1e+06u l=500000u
X29 a_n2715_n536# a_n2815_n633# a_n2873_n536# w_n3389_n1269# sky130_fd_pr__pfet_g5v0d10v5 ad=2.9e+11p pd=2.58e+06u as=2.9e+11p ps=2.58e+06u w=1e+06u l=500000u
X30 a_287_772# a_187_675# a_129_772# w_n3389_n1269# sky130_fd_pr__pfet_g5v0d10v5 ad=2.9e+11p pd=2.58e+06u as=2.9e+11p ps=2.58e+06u w=1e+06u l=500000u
X31 a_1709_772# a_1609_675# a_1551_772# w_n3389_n1269# sky130_fd_pr__pfet_g5v0d10v5 ad=2.9e+11p pd=2.58e+06u as=0p ps=0u w=1e+06u l=500000u
X32 a_603_n972# a_503_n1069# a_445_n972# w_n3389_n1269# sky130_fd_pr__pfet_g5v0d10v5 ad=2.9e+11p pd=2.58e+06u as=2.9e+11p ps=2.58e+06u w=1e+06u l=500000u
X33 a_n29_n972# a_n129_n1069# a_n187_n972# w_n3389_n1269# sky130_fd_pr__pfet_g5v0d10v5 ad=2.9e+11p pd=2.58e+06u as=2.9e+11p ps=2.58e+06u w=1e+06u l=500000u
X34 a_1235_772# a_1135_675# a_1077_772# w_n3389_n1269# sky130_fd_pr__pfet_g5v0d10v5 ad=2.9e+11p pd=2.58e+06u as=0p ps=0u w=1e+06u l=500000u
X35 a_3131_n536# a_3031_n633# a_2973_n536# w_n3389_n1269# sky130_fd_pr__pfet_g5v0d10v5 ad=2.9e+11p pd=2.58e+06u as=2.9e+11p ps=2.58e+06u w=1e+06u l=500000u
X36 a_n3031_n536# a_n3131_n633# a_n3189_n536# w_n3389_n1269# sky130_fd_pr__pfet_g5v0d10v5 ad=2.9e+11p pd=2.58e+06u as=2.9e+11p ps=2.58e+06u w=1e+06u l=500000u
X37 a_n1925_772# a_n2025_675# a_n2083_772# w_n3389_n1269# sky130_fd_pr__pfet_g5v0d10v5 ad=2.9e+11p pd=2.58e+06u as=0p ps=0u w=1e+06u l=500000u
X38 a_919_772# a_819_675# a_761_772# w_n3389_n1269# sky130_fd_pr__pfet_g5v0d10v5 ad=0p pd=0u as=0p ps=0u w=1e+06u l=500000u
X39 a_n1767_336# a_n1867_239# a_n1925_336# w_n3389_n1269# sky130_fd_pr__pfet_g5v0d10v5 ad=2.9e+11p pd=2.58e+06u as=0p ps=0u w=1e+06u l=500000u
X40 a_445_772# a_345_675# a_287_772# w_n3389_n1269# sky130_fd_pr__pfet_g5v0d10v5 ad=2.9e+11p pd=2.58e+06u as=0p ps=0u w=1e+06u l=500000u
X41 a_n1293_336# a_n1393_239# a_n1451_336# w_n3389_n1269# sky130_fd_pr__pfet_g5v0d10v5 ad=2.9e+11p pd=2.58e+06u as=2.9e+11p ps=2.58e+06u w=1e+06u l=500000u
X42 a_1867_n536# a_1767_n633# a_1709_n536# w_n3389_n1269# sky130_fd_pr__pfet_g5v0d10v5 ad=2.9e+11p pd=2.58e+06u as=2.9e+11p ps=2.58e+06u w=1e+06u l=500000u
X43 a_n1767_n536# a_n1867_n633# a_n1925_n536# w_n3389_n1269# sky130_fd_pr__pfet_g5v0d10v5 ad=2.9e+11p pd=2.58e+06u as=2.9e+11p ps=2.58e+06u w=1e+06u l=500000u
X44 a_n1767_n100# a_n1867_n197# a_n1925_n100# w_n3389_n1269# sky130_fd_pr__pfet_g5v0d10v5 ad=2.9e+11p pd=2.58e+06u as=0p ps=0u w=1e+06u l=500000u
X45 a_n1293_n100# a_n1393_n197# a_n1451_n100# w_n3389_n1269# sky130_fd_pr__pfet_g5v0d10v5 ad=2.9e+11p pd=2.58e+06u as=2.9e+11p ps=2.58e+06u w=1e+06u l=500000u
X46 a_2183_n536# a_2083_n633# a_2025_n536# w_n3389_n1269# sky130_fd_pr__pfet_g5v0d10v5 ad=2.9e+11p pd=2.58e+06u as=2.9e+11p ps=2.58e+06u w=1e+06u l=500000u
X47 a_n2083_n536# a_n2183_n633# a_n2241_n536# w_n3389_n1269# sky130_fd_pr__pfet_g5v0d10v5 ad=2.9e+11p pd=2.58e+06u as=2.9e+11p ps=2.58e+06u w=1e+06u l=500000u
X48 a_3131_772# a_3031_675# a_2973_772# w_n3389_n1269# sky130_fd_pr__pfet_g5v0d10v5 ad=2.9e+11p pd=2.58e+06u as=2.9e+11p ps=2.58e+06u w=1e+06u l=500000u
X49 a_2973_336# a_2873_239# a_2815_336# w_n3389_n1269# sky130_fd_pr__pfet_g5v0d10v5 ad=0p pd=0u as=2.9e+11p ps=2.58e+06u w=1e+06u l=500000u
X50 a_1235_n972# a_1135_n1069# a_1077_n972# w_n3389_n1269# sky130_fd_pr__pfet_g5v0d10v5 ad=2.9e+11p pd=2.58e+06u as=0p ps=0u w=1e+06u l=500000u
X51 a_n1135_n972# a_n1235_n1069# a_n1293_n972# w_n3389_n1269# sky130_fd_pr__pfet_g5v0d10v5 ad=0p pd=0u as=2.9e+11p ps=2.58e+06u w=1e+06u l=500000u
X52 a_603_772# a_503_675# a_445_772# w_n3389_n1269# sky130_fd_pr__pfet_g5v0d10v5 ad=0p pd=0u as=0p ps=0u w=1e+06u l=500000u
X53 a_n1451_336# a_n1551_239# a_n1609_336# w_n3389_n1269# sky130_fd_pr__pfet_g5v0d10v5 ad=0p pd=0u as=2.9e+11p ps=2.58e+06u w=1e+06u l=500000u
X54 a_2973_n100# a_2873_n197# a_2815_n100# w_n3389_n1269# sky130_fd_pr__pfet_g5v0d10v5 ad=0p pd=0u as=2.9e+11p ps=2.58e+06u w=1e+06u l=500000u
X55 a_2815_n972# a_2715_n1069# a_2657_n972# w_n3389_n1269# sky130_fd_pr__pfet_g5v0d10v5 ad=2.9e+11p pd=2.58e+06u as=0p ps=0u w=1e+06u l=500000u
X56 a_n2715_n972# a_n2815_n1069# a_n2873_n972# w_n3389_n1269# sky130_fd_pr__pfet_g5v0d10v5 ad=0p pd=0u as=2.9e+11p ps=2.58e+06u w=1e+06u l=500000u
X57 a_2499_336# a_2399_239# a_2341_336# w_n3389_n1269# sky130_fd_pr__pfet_g5v0d10v5 ad=2.9e+11p pd=2.58e+06u as=2.9e+11p ps=2.58e+06u w=1e+06u l=500000u
X58 a_n1451_n100# a_n1551_n197# a_n1609_n100# w_n3389_n1269# sky130_fd_pr__pfet_g5v0d10v5 ad=0p pd=0u as=2.9e+11p ps=2.58e+06u w=1e+06u l=500000u
X59 a_n819_n536# a_n919_n633# a_n977_n536# w_n3389_n1269# sky130_fd_pr__pfet_g5v0d10v5 ad=2.9e+11p pd=2.58e+06u as=2.9e+11p ps=2.58e+06u w=1e+06u l=500000u
X60 a_n977_336# a_n1077_239# a_n1135_336# w_n3389_n1269# sky130_fd_pr__pfet_g5v0d10v5 ad=2.9e+11p pd=2.58e+06u as=2.9e+11p ps=2.58e+06u w=1e+06u l=500000u
X61 a_3131_n972# a_3031_n1069# a_2973_n972# w_n3389_n1269# sky130_fd_pr__pfet_g5v0d10v5 ad=2.9e+11p pd=2.58e+06u as=2.9e+11p ps=2.58e+06u w=1e+06u l=500000u
X62 a_n3031_n972# a_n3131_n1069# a_n3189_n972# w_n3389_n1269# sky130_fd_pr__pfet_g5v0d10v5 ad=2.9e+11p pd=2.58e+06u as=2.9e+11p ps=2.58e+06u w=1e+06u l=500000u
X63 a_2499_n100# a_2399_n197# a_2341_n100# w_n3389_n1269# sky130_fd_pr__pfet_g5v0d10v5 ad=2.9e+11p pd=2.58e+06u as=2.9e+11p ps=2.58e+06u w=1e+06u l=500000u
X64 a_n661_n536# a_n761_n633# a_n819_n536# w_n3389_n1269# sky130_fd_pr__pfet_g5v0d10v5 ad=2.9e+11p pd=2.58e+06u as=0p ps=0u w=1e+06u l=500000u
X65 a_n977_n100# a_n1077_n197# a_n1135_n100# w_n3389_n1269# sky130_fd_pr__pfet_g5v0d10v5 ad=2.9e+11p pd=2.58e+06u as=2.9e+11p ps=2.58e+06u w=1e+06u l=500000u
X66 a_n1767_772# a_n1867_675# a_n1925_772# w_n3389_n1269# sky130_fd_pr__pfet_g5v0d10v5 ad=2.9e+11p pd=2.58e+06u as=0p ps=0u w=1e+06u l=500000u
X67 a_2657_336# a_2557_239# a_2499_336# w_n3389_n1269# sky130_fd_pr__pfet_g5v0d10v5 ad=2.9e+11p pd=2.58e+06u as=0p ps=0u w=1e+06u l=500000u
X68 a_n1609_336# a_n1709_239# a_n1767_336# w_n3389_n1269# sky130_fd_pr__pfet_g5v0d10v5 ad=0p pd=0u as=0p ps=0u w=1e+06u l=500000u
X69 a_1867_n972# a_1767_n1069# a_1709_n972# w_n3389_n1269# sky130_fd_pr__pfet_g5v0d10v5 ad=2.9e+11p pd=2.58e+06u as=2.9e+11p ps=2.58e+06u w=1e+06u l=500000u
X70 a_n1767_n972# a_n1867_n1069# a_n1925_n972# w_n3389_n1269# sky130_fd_pr__pfet_g5v0d10v5 ad=2.9e+11p pd=2.58e+06u as=2.9e+11p ps=2.58e+06u w=1e+06u l=500000u
X71 a_n1293_772# a_n1393_675# a_n1451_772# w_n3389_n1269# sky130_fd_pr__pfet_g5v0d10v5 ad=2.9e+11p pd=2.58e+06u as=2.9e+11p ps=2.58e+06u w=1e+06u l=500000u
X72 a_2183_336# a_2083_239# a_2025_336# w_n3389_n1269# sky130_fd_pr__pfet_g5v0d10v5 ad=2.9e+11p pd=2.58e+06u as=2.9e+11p ps=2.58e+06u w=1e+06u l=500000u
X73 a_n1135_336# a_n1235_239# a_n1293_336# w_n3389_n1269# sky130_fd_pr__pfet_g5v0d10v5 ad=0p pd=0u as=0p ps=0u w=1e+06u l=500000u
X74 a_919_n536# a_819_n633# a_761_n536# w_n3389_n1269# sky130_fd_pr__pfet_g5v0d10v5 ad=2.9e+11p pd=2.58e+06u as=2.9e+11p ps=2.58e+06u w=1e+06u l=500000u
X75 a_2657_n100# a_2557_n197# a_2499_n100# w_n3389_n1269# sky130_fd_pr__pfet_g5v0d10v5 ad=2.9e+11p pd=2.58e+06u as=0p ps=0u w=1e+06u l=500000u
X76 a_n1609_n100# a_n1709_n197# a_n1767_n100# w_n3389_n1269# sky130_fd_pr__pfet_g5v0d10v5 ad=0p pd=0u as=0p ps=0u w=1e+06u l=500000u
X77 a_2183_n972# a_2083_n1069# a_2025_n972# w_n3389_n1269# sky130_fd_pr__pfet_g5v0d10v5 ad=2.9e+11p pd=2.58e+06u as=2.9e+11p ps=2.58e+06u w=1e+06u l=500000u
X78 a_2183_n100# a_2083_n197# a_2025_n100# w_n3389_n1269# sky130_fd_pr__pfet_g5v0d10v5 ad=2.9e+11p pd=2.58e+06u as=2.9e+11p ps=2.58e+06u w=1e+06u l=500000u
X79 a_n2083_n972# a_n2183_n1069# a_n2241_n972# w_n3389_n1269# sky130_fd_pr__pfet_g5v0d10v5 ad=2.9e+11p pd=2.58e+06u as=2.9e+11p ps=2.58e+06u w=1e+06u l=500000u
X80 a_2025_n536# a_1925_n633# a_1867_n536# w_n3389_n1269# sky130_fd_pr__pfet_g5v0d10v5 ad=0p pd=0u as=0p ps=0u w=1e+06u l=500000u
X81 a_2973_772# a_2873_675# a_2815_772# w_n3389_n1269# sky130_fd_pr__pfet_g5v0d10v5 ad=0p pd=0u as=2.9e+11p ps=2.58e+06u w=1e+06u l=500000u
X82 a_n1135_n100# a_n1235_n197# a_n1293_n100# w_n3389_n1269# sky130_fd_pr__pfet_g5v0d10v5 ad=0p pd=0u as=0p ps=0u w=1e+06u l=500000u
X83 a_761_n536# a_661_n633# a_603_n536# w_n3389_n1269# sky130_fd_pr__pfet_g5v0d10v5 ad=0p pd=0u as=2.9e+11p ps=2.58e+06u w=1e+06u l=500000u
X84 a_n187_n536# a_n287_n633# a_n345_n536# w_n3389_n1269# sky130_fd_pr__pfet_g5v0d10v5 ad=2.9e+11p pd=2.58e+06u as=2.9e+11p ps=2.58e+06u w=1e+06u l=500000u
X85 a_2815_336# a_2715_239# a_2657_336# w_n3389_n1269# sky130_fd_pr__pfet_g5v0d10v5 ad=0p pd=0u as=0p ps=0u w=1e+06u l=500000u
X86 a_n1451_772# a_n1551_675# a_n1609_772# w_n3389_n1269# sky130_fd_pr__pfet_g5v0d10v5 ad=0p pd=0u as=2.9e+11p ps=2.58e+06u w=1e+06u l=500000u
X87 a_2341_336# a_2241_239# a_2183_336# w_n3389_n1269# sky130_fd_pr__pfet_g5v0d10v5 ad=0p pd=0u as=0p ps=0u w=1e+06u l=500000u
X88 a_2341_n536# a_2241_n633# a_2183_n536# w_n3389_n1269# sky130_fd_pr__pfet_g5v0d10v5 ad=2.9e+11p pd=2.58e+06u as=0p ps=0u w=1e+06u l=500000u
X89 a_n2241_n536# a_n2341_n633# a_n2399_n536# w_n3389_n1269# sky130_fd_pr__pfet_g5v0d10v5 ad=0p pd=0u as=2.9e+11p ps=2.58e+06u w=1e+06u l=500000u
X90 a_2815_n100# a_2715_n197# a_2657_n100# w_n3389_n1269# sky130_fd_pr__pfet_g5v0d10v5 ad=0p pd=0u as=0p ps=0u w=1e+06u l=500000u
X91 a_2499_772# a_2399_675# a_2341_772# w_n3389_n1269# sky130_fd_pr__pfet_g5v0d10v5 ad=2.9e+11p pd=2.58e+06u as=2.9e+11p ps=2.58e+06u w=1e+06u l=500000u
X92 a_n661_336# a_n761_239# a_n819_336# w_n3389_n1269# sky130_fd_pr__pfet_g5v0d10v5 ad=2.9e+11p pd=2.58e+06u as=2.9e+11p ps=2.58e+06u w=1e+06u l=500000u
X93 a_2341_n100# a_2241_n197# a_2183_n100# w_n3389_n1269# sky130_fd_pr__pfet_g5v0d10v5 ad=0p pd=0u as=0p ps=0u w=1e+06u l=500000u
X94 a_n3031_336# a_n3131_239# a_n3189_336# w_n3389_n1269# sky130_fd_pr__pfet_g5v0d10v5 ad=2.9e+11p pd=2.58e+06u as=2.9e+11p ps=2.58e+06u w=1e+06u l=500000u
X95 a_n819_n972# a_n919_n1069# a_n977_n972# w_n3389_n1269# sky130_fd_pr__pfet_g5v0d10v5 ad=2.9e+11p pd=2.58e+06u as=0p ps=0u w=1e+06u l=500000u
X96 a_n977_772# a_n1077_675# a_n1135_772# w_n3389_n1269# sky130_fd_pr__pfet_g5v0d10v5 ad=2.9e+11p pd=2.58e+06u as=2.9e+11p ps=2.58e+06u w=1e+06u l=500000u
X97 a_129_336# a_29_239# a_n29_336# w_n3389_n1269# sky130_fd_pr__pfet_g5v0d10v5 ad=2.9e+11p pd=2.58e+06u as=2.9e+11p ps=2.58e+06u w=1e+06u l=500000u
X98 a_n661_n100# a_n761_n197# a_n819_n100# w_n3389_n1269# sky130_fd_pr__pfet_g5v0d10v5 ad=2.9e+11p pd=2.58e+06u as=2.9e+11p ps=2.58e+06u w=1e+06u l=500000u
X99 a_287_n536# a_187_n633# a_129_n536# w_n3389_n1269# sky130_fd_pr__pfet_g5v0d10v5 ad=2.9e+11p pd=2.58e+06u as=2.9e+11p ps=2.58e+06u w=1e+06u l=500000u
X100 a_n3031_n100# a_n3131_n197# a_n3189_n100# w_n3389_n1269# sky130_fd_pr__pfet_g5v0d10v5 ad=2.9e+11p pd=2.58e+06u as=2.9e+11p ps=2.58e+06u w=1e+06u l=500000u
X101 a_129_n100# a_29_n197# a_n29_n100# w_n3389_n1269# sky130_fd_pr__pfet_g5v0d10v5 ad=0p pd=0u as=2.9e+11p ps=2.58e+06u w=1e+06u l=500000u
X102 a_n661_n972# a_n761_n1069# a_n819_n972# w_n3389_n1269# sky130_fd_pr__pfet_g5v0d10v5 ad=0p pd=0u as=0p ps=0u w=1e+06u l=500000u
X103 a_n187_336# a_n287_239# a_n345_336# w_n3389_n1269# sky130_fd_pr__pfet_g5v0d10v5 ad=2.9e+11p pd=2.58e+06u as=2.9e+11p ps=2.58e+06u w=1e+06u l=500000u
X104 a_1393_n536# a_1293_n633# a_1235_n536# w_n3389_n1269# sky130_fd_pr__pfet_g5v0d10v5 ad=2.9e+11p pd=2.58e+06u as=0p ps=0u w=1e+06u l=500000u
X105 a_n1293_n536# a_n1393_n633# a_n1451_n536# w_n3389_n1269# sky130_fd_pr__pfet_g5v0d10v5 ad=0p pd=0u as=2.9e+11p ps=2.58e+06u w=1e+06u l=500000u
X106 a_2657_772# a_2557_675# a_2499_772# w_n3389_n1269# sky130_fd_pr__pfet_g5v0d10v5 ad=2.9e+11p pd=2.58e+06u as=0p ps=0u w=1e+06u l=500000u
X107 a_n1609_772# a_n1709_675# a_n1767_772# w_n3389_n1269# sky130_fd_pr__pfet_g5v0d10v5 ad=0p pd=0u as=0p ps=0u w=1e+06u l=500000u
X108 a_2183_772# a_2083_675# a_2025_772# w_n3389_n1269# sky130_fd_pr__pfet_g5v0d10v5 ad=2.9e+11p pd=2.58e+06u as=0p ps=0u w=1e+06u l=500000u
X109 a_n187_n100# a_n287_n197# a_n345_n100# w_n3389_n1269# sky130_fd_pr__pfet_g5v0d10v5 ad=2.9e+11p pd=2.58e+06u as=2.9e+11p ps=2.58e+06u w=1e+06u l=500000u
X110 a_n1135_772# a_n1235_675# a_n1293_772# w_n3389_n1269# sky130_fd_pr__pfet_g5v0d10v5 ad=0p pd=0u as=0p ps=0u w=1e+06u l=500000u
X111 a_919_n972# a_819_n1069# a_761_n972# w_n3389_n1269# sky130_fd_pr__pfet_g5v0d10v5 ad=0p pd=0u as=2.9e+11p ps=2.58e+06u w=1e+06u l=500000u
X112 a_n819_336# a_n919_239# a_n977_336# w_n3389_n1269# sky130_fd_pr__pfet_g5v0d10v5 ad=0p pd=0u as=0p ps=0u w=1e+06u l=500000u
X113 a_2973_n536# a_2873_n633# a_2815_n536# w_n3389_n1269# sky130_fd_pr__pfet_g5v0d10v5 ad=0p pd=0u as=0p ps=0u w=1e+06u l=500000u
X114 a_n2873_n536# a_n2973_n633# a_n3031_n536# w_n3389_n1269# sky130_fd_pr__pfet_g5v0d10v5 ad=0p pd=0u as=0p ps=0u w=1e+06u l=500000u
X115 a_2025_n972# a_1925_n1069# a_1867_n972# w_n3389_n1269# sky130_fd_pr__pfet_g5v0d10v5 ad=0p pd=0u as=0p ps=0u w=1e+06u l=500000u
X116 a_n345_336# a_n445_239# a_n503_336# w_n3389_n1269# sky130_fd_pr__pfet_g5v0d10v5 ad=0p pd=0u as=2.9e+11p ps=2.58e+06u w=1e+06u l=500000u
X117 a_761_n972# a_661_n1069# a_603_n972# w_n3389_n1269# sky130_fd_pr__pfet_g5v0d10v5 ad=0p pd=0u as=0p ps=0u w=1e+06u l=500000u
X118 a_n187_n972# a_n287_n1069# a_n345_n972# w_n3389_n1269# sky130_fd_pr__pfet_g5v0d10v5 ad=0p pd=0u as=2.9e+11p ps=2.58e+06u w=1e+06u l=500000u
X119 a_2815_772# a_2715_675# a_2657_772# w_n3389_n1269# sky130_fd_pr__pfet_g5v0d10v5 ad=0p pd=0u as=0p ps=0u w=1e+06u l=500000u
X120 a_n819_n100# a_n919_n197# a_n977_n100# w_n3389_n1269# sky130_fd_pr__pfet_g5v0d10v5 ad=0p pd=0u as=0p ps=0u w=1e+06u l=500000u
X121 a_2341_772# a_2241_675# a_2183_772# w_n3389_n1269# sky130_fd_pr__pfet_g5v0d10v5 ad=0p pd=0u as=0p ps=0u w=1e+06u l=500000u
X122 a_n345_n100# a_n445_n197# a_n503_n100# w_n3389_n1269# sky130_fd_pr__pfet_g5v0d10v5 ad=0p pd=0u as=2.9e+11p ps=2.58e+06u w=1e+06u l=500000u
X123 a_2341_n972# a_2241_n1069# a_2183_n972# w_n3389_n1269# sky130_fd_pr__pfet_g5v0d10v5 ad=2.9e+11p pd=2.58e+06u as=0p ps=0u w=1e+06u l=500000u
X124 a_n2241_n972# a_n2341_n1069# a_n2399_n972# w_n3389_n1269# sky130_fd_pr__pfet_g5v0d10v5 ad=0p pd=0u as=2.9e+11p ps=2.58e+06u w=1e+06u l=500000u
X125 a_n345_n536# a_n445_n633# a_n503_n536# w_n3389_n1269# sky130_fd_pr__pfet_g5v0d10v5 ad=0p pd=0u as=2.9e+11p ps=2.58e+06u w=1e+06u l=500000u
X126 a_n661_772# a_n761_675# a_n819_772# w_n3389_n1269# sky130_fd_pr__pfet_g5v0d10v5 ad=2.9e+11p pd=2.58e+06u as=2.9e+11p ps=2.58e+06u w=1e+06u l=500000u
X127 a_2499_n536# a_2399_n633# a_2341_n536# w_n3389_n1269# sky130_fd_pr__pfet_g5v0d10v5 ad=2.9e+11p pd=2.58e+06u as=0p ps=0u w=1e+06u l=500000u
X128 a_n2399_n536# a_n2499_n633# a_n2557_n536# w_n3389_n1269# sky130_fd_pr__pfet_g5v0d10v5 ad=0p pd=0u as=2.9e+11p ps=2.58e+06u w=1e+06u l=500000u
X129 a_n3031_772# a_n3131_675# a_n3189_772# w_n3389_n1269# sky130_fd_pr__pfet_g5v0d10v5 ad=2.9e+11p pd=2.58e+06u as=2.9e+11p ps=2.58e+06u w=1e+06u l=500000u
X130 a_n2873_336# a_n2973_239# a_n3031_336# w_n3389_n1269# sky130_fd_pr__pfet_g5v0d10v5 ad=2.9e+11p pd=2.58e+06u as=0p ps=0u w=1e+06u l=500000u
X131 a_n503_336# a_n603_239# a_n661_336# w_n3389_n1269# sky130_fd_pr__pfet_g5v0d10v5 ad=0p pd=0u as=0p ps=0u w=1e+06u l=500000u
X132 a_129_772# a_29_675# a_n29_772# w_n3389_n1269# sky130_fd_pr__pfet_g5v0d10v5 ad=0p pd=0u as=2.9e+11p ps=2.58e+06u w=1e+06u l=500000u
X133 a_287_n972# a_187_n1069# a_129_n972# w_n3389_n1269# sky130_fd_pr__pfet_g5v0d10v5 ad=2.9e+11p pd=2.58e+06u as=2.9e+11p ps=2.58e+06u w=1e+06u l=500000u
X134 a_n503_n100# a_n603_n197# a_n661_n100# w_n3389_n1269# sky130_fd_pr__pfet_g5v0d10v5 ad=0p pd=0u as=0p ps=0u w=1e+06u l=500000u
X135 a_129_n536# a_29_n633# a_n29_n536# w_n3389_n1269# sky130_fd_pr__pfet_g5v0d10v5 ad=0p pd=0u as=2.9e+11p ps=2.58e+06u w=1e+06u l=500000u
X136 a_n2873_n100# a_n2973_n197# a_n3031_n100# w_n3389_n1269# sky130_fd_pr__pfet_g5v0d10v5 ad=2.9e+11p pd=2.58e+06u as=0p ps=0u w=1e+06u l=500000u
X137 a_n187_772# a_n287_675# a_n345_772# w_n3389_n1269# sky130_fd_pr__pfet_g5v0d10v5 ad=2.9e+11p pd=2.58e+06u as=2.9e+11p ps=2.58e+06u w=1e+06u l=500000u
X138 a_1393_n972# a_1293_n1069# a_1235_n972# w_n3389_n1269# sky130_fd_pr__pfet_g5v0d10v5 ad=2.9e+11p pd=2.58e+06u as=0p ps=0u w=1e+06u l=500000u
X139 a_n1293_n972# a_n1393_n1069# a_n1451_n972# w_n3389_n1269# sky130_fd_pr__pfet_g5v0d10v5 ad=0p pd=0u as=2.9e+11p ps=2.58e+06u w=1e+06u l=500000u
X140 a_1709_n536# a_1609_n633# a_1551_n536# w_n3389_n1269# sky130_fd_pr__pfet_g5v0d10v5 ad=0p pd=0u as=2.9e+11p ps=2.58e+06u w=1e+06u l=500000u
X141 a_n1609_n536# a_n1709_n633# a_n1767_n536# w_n3389_n1269# sky130_fd_pr__pfet_g5v0d10v5 ad=2.9e+11p pd=2.58e+06u as=0p ps=0u w=1e+06u l=500000u
X142 a_n2399_336# a_n2499_239# a_n2557_336# w_n3389_n1269# sky130_fd_pr__pfet_g5v0d10v5 ad=2.9e+11p pd=2.58e+06u as=2.9e+11p ps=2.58e+06u w=1e+06u l=500000u
X143 a_n29_336# a_n129_239# a_n187_336# w_n3389_n1269# sky130_fd_pr__pfet_g5v0d10v5 ad=0p pd=0u as=0p ps=0u w=1e+06u l=500000u